9871593
 OpenBabel05171315223D

 63 65  0  0  0  0  0  0  0  0999 V2000
    8.6798   -5.3933    1.5637 Na  0  3  0  0  0 15  0  0  0  0  0  0
   11.7797   -0.6754   -2.0537 O   0  0  0  0  0  0  0  0  0  0  0  0
   11.8144    1.6819   -1.5466 O   0  0  0  0  0  0  0  0  0  0  0  0
    7.9428    0.6832   -3.7690 O   0  0  0  0  0  0  0  0  0  0  0  0
    3.3417    2.0253   -2.6962 O   0  0  0  0  0  0  0  0  0  0  0  0
    5.3985    1.7260   -4.7159 O   0  0  0  0  0  0  0  0  0  0  0  0
    6.3970   -3.1254    2.6229 O   0  0  0  0  0  0  0  0  0  0  0  0
    9.2985   -3.3658    1.9824 O   0  5  0  0  0  0  0  0  0  0  0  0
    7.9226   -3.8150    0.3127 O   0  0  0  0  0  0  0  0  0  0  0  0
    0.3113   -1.8311    3.1809 O   0  0  0  0  0  0  0  0  0  0  0  0
    6.1235    0.1477    0.7913 C   0  0  0  0  0  0  0  0  0  0  0  0
    6.7167   -1.2008    1.1889 C   0  0  0  0  0  0  0  0  0  0  0  0
    5.9067    0.4269   -0.7020 C   0  0  0  0  0  0  0  0  0  0  0  0
    8.0383   -1.5352    1.0437 C   0  0  0  0  0  0  0  0  0  0  0  0
    9.1757   -0.6999    0.5579 C   0  0  0  0  0  0  0  0  0  0  0  0
    5.8665   -2.1963    2.0024 C   0  0  0  0  0  0  0  0  0  0  0  0
    4.7306    1.0220   -1.1623 C   0  0  0  0  0  0  0  0  0  0  0  0
    6.9275    0.2869   -1.6466 C   0  0  0  0  0  0  0  0  0  0  0  0
   10.0793   -1.2157   -0.3977 C   0  0  0  0  0  0  0  0  0  0  0  0
   10.9447   -0.3492   -1.0309 C   0  0  0  0  0  0  0  0  0  0  0  0
    9.3160    0.6555    0.9375 C   0  0  0  0  0  0  0  0  0  0  0  0
   10.9721    0.9917   -0.7360 C   0  0  0  0  0  0  0  0  0  0  0  0
    6.8163    0.7082   -2.9800 C   0  0  0  0  0  0  0  0  0  0  0  0
    4.5792    1.4583   -2.5019 C   0  0  0  0  0  0  0  0  0  0  0  0
    4.3997   -2.0626    2.2642 C   0  0  0  0  0  0  0  0  0  0  0  0
    5.6315    1.3092   -3.4324 C   0  0  0  0  0  0  0  0  0  0  0  0
   10.1916    1.5216    0.2623 C   0  0  0  0  0  0  0  0  0  0  0  0
    8.4417   -2.9904    1.1434 C   0  0  0  0  0  0  0  0  0  0  0  0
   12.2641    0.6287   -2.4277 C   0  0  0  0  0  0  0  0  0  0  0  0
    3.4660   -1.5283    1.3765 C   0  0  0  0  0  0  0  0  0  0  0  0
    3.9228   -2.5866    3.4852 C   0  0  0  0  0  0  0  0  0  0  0  0
    2.1138   -1.4422    1.7428 C   0  0  0  0  0  0  0  0  0  0  0  0
    2.5661   -2.5471    3.8283 C   0  0  0  0  0  0  0  0  0  0  0  0
    1.6544   -1.9624    2.9593 C   0  0  0  0  0  0  0  0  0  0  0  0
    8.5540   -0.5996   -3.9014 C   0  0  0  0  0  0  0  0  0  0  0  0
    3.1030    2.8042   -3.8574 C   0  0  0  0  0  0  0  0  0  0  0  0
    6.4965    1.9053   -5.6046 C   0  0  0  0  0  0  0  0  0  0  0  0
   -0.2502   -2.6804    4.1776 C   0  0  0  0  0  0  0  0  0  0  0  0
    6.7375    0.9662    1.1714 H   0  0  0  0  0  0  0  0  0  0  0  0
    5.1853    0.3250    1.3253 H   0  0  0  0  0  0  0  0  0  0  0  0
    3.9086    1.2029   -0.4731 H   0  0  0  0  0  0  0  0  0  0  0  0
    7.8779   -0.1036   -1.3414 H   0  0  0  0  0  0  0  0  0  0  0  0
   10.0512   -2.2511   -0.7172 H   0  0  0  0  0  0  0  0  0  0  0  0
    8.7062    1.0703    1.7359 H   0  0  0  0  0  0  0  0  0  0  0  0
   10.2226    2.5760    0.4955 H   0  0  0  0  0  0  0  0  0  0  0  0
   11.9137    0.8469   -3.4483 H   0  0  0  0  0  0  0  0  0  0  0  0
   13.3564    0.6151   -2.4285 H   0  0  0  0  0  0  0  0  0  0  0  0
    3.7560   -1.1907    0.3893 H   0  0  0  0  0  0  0  0  0  0  0  0
    4.6176   -3.0457    4.1875 H   0  0  0  0  0  0  0  0  0  0  0  0
    1.4006   -0.9851    1.0559 H   0  0  0  0  0  0  0  0  0  0  0  0
    2.2658   -2.9669    4.7776 H   0  0  0  0  0  0  0  0  0  0  0  0
    7.8900   -1.2839   -4.4386 H   0  0  0  0  0  0  0  0  0  0  0  0
    8.8591   -1.0337   -2.9541 H   0  0  0  0  0  0  0  0  0  0  0  0
    9.4661   -0.4629   -4.5016 H   0  0  0  0  0  0  0  0  0  0  0  0
    3.9393    3.4593   -4.1165 H   0  0  0  0  0  0  0  0  0  0  0  0
    2.2559    3.4601   -3.6401 H   0  0  0  0  0  0  0  0  0  0  0  0
    2.8136    2.1560   -4.6941 H   0  0  0  0  0  0  0  0  0  0  0  0
    7.2694    2.5516   -5.1707 H   0  0  0  0  0  0  0  0  0  0  0  0
    6.1227    2.4130   -6.4961 H   0  0  0  0  0  0  0  0  0  0  0  0
    6.8974    0.9422   -5.9311 H   0  0  0  0  0  0  0  0  0  0  0  0
   -1.3365   -2.5489    4.1552 H   0  0  0  0  0  0  0  0  0  0  0  0
    0.0950   -2.4068    5.1785 H   0  0  0  0  0  0  0  0  0  0  0  0
   -0.0393   -3.7356    3.9620 H   0  0  0  0  0  0  0  0  0  0  0  0
  2 20  1  0  0  0  0
  2 29  1  0  0  0  0
  3 29  1  0  0  0  0
  3 22  1  0  0  0  0
  4 23  1  0  0  0  0
  4 35  1  0  0  0  0
  5 24  1  0  0  0  0
  5 36  1  0  0  0  0
  6 26  1  0  0  0  0
  6 37  1  0  0  0  0
  7 16  2  0  0  0  0
  8 28  1  0  0  0  0
  9 28  2  0  0  0  0
 10 34  1  0  0  0  0
 10 38  1  0  0  0  0
 11 12  1  0  0  0  0
 11 13  1  0  0  0  0
 11 39  1  0  0  0  0
 11 40  1  0  0  0  0
 12 14  2  0  0  0  0
 12 16  1  0  0  0  0
 13 17  2  0  0  0  0
 13 18  1  0  0  0  0
 14 15  1  0  0  0  0
 14 28  1  0  0  0  0
 15 21  1  0  0  0  0
 15 19  2  0  0  0  0
 16 25  1  0  0  0  0
 17 24  1  0  0  0  0
 17 41  1  0  0  0  0
 18 23  2  0  0  0  0
 18 42  1  0  0  0  0
 19 20  1  0  0  0  0
 19 43  1  0  0  0  0
 20 22  2  0  0  0  0
 21 27  2  0  0  0  0
 21 44  1  0  0  0  0
 22 27  1  0  0  0  0
 23 26  1  0  0  0  0
 24 26  2  0  0  0  0
 25 30  2  0  0  0  0
 25 31  1  0  0  0  0
 27 45  1  0  0  0  0
 29 46  1  0  0  0  0
 29 47  1  0  0  0  0
 30 32  1  0  0  0  0
 30 48  1  0  0  0  0
 31 33  2  0  0  0  0
 31 49  1  0  0  0  0
 32 34  2  0  0  0  0
 32 50  1  0  0  0  0
 33 34  1  0  0  0  0
 33 51  1  0  0  0  0
 35 52  1  0  0  0  0
 35 53  1  0  0  0  0
 35 54  1  0  0  0  0
 36 55  1  0  0  0  0
 36 56  1  0  0  0  0
 36 57  1  0  0  0  0
 37 58  1  0  0  0  0
 37 59  1  0  0  0  0
 37 60  1  0  0  0  0
 38 61  1  0  0  0  0
 38 62  1  0  0  0  0
 38 63  1  0  0  0  0
M  CHG  2   1   1   8  -1
M  END
>  <PUBCHEM_BONDANNOTATIONS>
13  17  8
13  18  8
15  19  8
15  21  8
17  24  8
18  23  8
19  20  8
20  22  8
21  27  8
22  27  8
23  26  8
24  26  8
25  30  8
25  31  8
30  32  8
31  33  8
32  34  8
33  34  8

$$$$
