11672244
  -OEChem-02070712392D

108111  0     1  0  0  0  0  0999 V2000
    2.6013    5.5079    0.0000 Na  0  3  0  0  0  0  0  0  0  0  0  0
    6.7213    0.0000    0.0000 Na  0  3  0  0  0  0  0  0  0  0  0  0
    6.5975    7.9363    0.0000 O   0  0  0  0  0  0  0  0  0  0  0  0
    9.7446   12.6940    0.0000 O   0  0  0  0  0  0  0  0  0  0  0  0
    2.6090    6.5079    0.0000 O   0  5  0  0  0  0  0  0  0  0  0  0
    4.3410    6.4945    0.0000 O   0  0  0  0  0  0  0  0  0  0  0  0
    8.2251    8.5287    0.0000 O   0  0  0  0  0  0  0  0  0  0  0  0
   11.5628    4.4226    0.0000 O   0  0  0  0  0  0  0  0  0  0  0  0
    5.9960    4.5248    0.0000 O   0  0  0  0  0  0  0  0  0  0  0  0
    6.3793    0.9397    0.0000 O   0  5  0  0  0  0  0  0  0  0  0  0
    8.0069    1.5321    0.0000 O   0  0  0  0  0  0  0  0  0  0  0  0
    7.6235    5.1172    0.0000 N   0  0  0  0  0  0  0  0  0  0  0  0
    6.1367    9.5496    0.0000 C   0  0  2  0  0  0  0  0  0  0  0  0
    6.1367   10.5496    0.0000 C   0  0  1  0  0  0  0  0  0  0  0  0
    5.2706    9.0496    0.0000 C   0  0  1  0  0  0  0  0  0  0  0  0
    7.0306   11.0843    0.0000 C   0  0  2  0  0  0  0  0  0  0  0  0
    7.9367   10.5704    0.0000 C   0  0  1  0  0  0  0  0  0  0  0  0
    7.0306    9.0150    0.0000 C   0  0  0  0  0  0  0  0  0  0  0  0
    4.4046    9.5496    0.0000 C   0  0  0  0  0  0  0  0  0  0  0  0
    3.4946    9.0428    0.0000 C   0  0  1  0  0  0  0  0  0  0  0  0
    7.9367    9.5288    0.0000 C   0  0  0  0  0  0  0  0  0  0  0  0
    5.2867    8.0081    0.0000 C   0  0  0  0  0  0  0  0  0  0  0  0
    5.2706   11.0496    0.0000 C   0  0  0  0  0  0  0  0  0  0  0  0
    3.4866    8.0012    0.0000 C   0  0  1  0  0  0  0  0  0  0  0  0
    8.8805   11.1057    0.0000 C   0  0  0  0  0  0  0  0  0  0  0  0
    7.0055   12.1690    0.0000 C   0  0  0  0  0  0  0  0  0  0  0  0
    4.3887    7.4804    0.0000 C   0  0  0  0  0  0  0  0  0  0  0  0
    5.7947    8.6099    0.0000 C   0  0  0  0  0  0  0  0  0  0  0  0
    4.4046   10.5496    0.0000 C   0  0  0  0  0  0  0  0  0  0  0  0
    6.2554    8.8760    0.0000 C   0  0  0  0  0  0  0  0  0  0  0  0
    6.1608   11.5776    0.0000 C   0  0  0  0  0  0  0  0  0  0  0  0
    2.5678    9.6069    0.0000 C   0  0  0  0  0  0  0  0  0  0  0  0
    2.5512    7.4514    0.0000 C   0  0  0  0  0  0  0  0  0  0  0  0
    7.9367   12.7259    0.0000 C   0  0  0  0  0  0  0  0  0  0  0  0
    1.6199    9.0789    0.0000 C   0  0  0  0  0  0  0  0  0  0  0  0
    8.8805   12.1907    0.0000 C   0  0  0  0  0  0  0  0  0  0  0  0
    1.6115    7.9939    0.0000 C   0  0  0  0  0  0  0  0  0  0  0  0
    9.8805   11.1018    0.0000 C   0  0  0  0  0  0  0  0  0  0  0  0
    9.3771   10.2377    0.0000 C   0  0  0  0  0  0  0  0  0  0  0  0
    3.4789    7.0012    0.0000 C   0  0  0  0  0  0  0  0  0  0  0  0
    0.6200    9.0905    0.0000 C   0  0  0  0  0  0  0  0  0  0  0  0
    1.1299    9.9507    0.0000 C   0  0  0  0  0  0  0  0  0  0  0  0
    7.5823    7.7626    0.0000 C   0  0  0  0  0  0  0  0  0  0  0  0
    7.9243    6.8229    0.0000 C   0  0  0  0  0  0  0  0  0  0  0  0
    8.9091    6.6493    0.0000 C   0  0  0  0  0  0  0  0  0  0  0  0
    9.2511    5.7096    0.0000 C   0  0  0  0  0  0  0  0  0  0  0  0
    8.6083    4.9436    0.0000 C   0  0  0  0  0  0  0  0  0  0  0  0
   10.2359    5.5359    0.0000 C   0  0  0  0  0  0  0  0  0  0  0  0
    8.9504    4.0039    0.0000 C   0  0  0  0  0  0  0  0  0  0  0  0
   10.5780    4.5963    0.0000 C   0  0  0  0  0  0  0  0  0  0  0  0
    9.9352    3.8302    0.0000 C   0  0  0  0  0  0  0  0  0  0  0  0
    6.9808    4.3512    0.0000 C   0  0  0  0  0  0  0  0  0  0  0  0
    7.3229    3.4115    0.0000 C   0  0  0  0  0  0  0  0  0  0  0  0
    6.6801    2.6454    0.0000 C   0  0  0  0  0  0  0  0  0  0  0  0
    7.0221    1.7057    0.0000 C   0  0  0  0  0  0  0  0  0  0  0  0
    6.1305   11.3496    0.0000 H   0  0  0  0  0  0  0  0  0  0  0  0
    8.6279   10.1678    0.0000 H   0  0  0  0  0  0  0  0  0  0  0  0
    6.6260    8.5452    0.0000 H   0  0  0  0  0  0  0  0  0  0  0  0
    7.4242    8.5359    0.0000 H   0  0  0  0  0  0  0  0  0  0  0  0
    3.5100    9.8426    0.0000 H   0  0  0  0  0  0  0  0  0  0  0  0
    8.5475    9.6349    0.0000 H   0  0  0  0  0  0  0  0  0  0  0  0
    8.1457    8.9451    0.0000 H   0  0  0  0  0  0  0  0  0  0  0  0
    5.8958    8.1236    0.0000 H   0  0  0  0  0  0  0  0  0  0  0  0
    5.5047    7.4277    0.0000 H   0  0  0  0  0  0  0  0  0  0  0  0
    5.6692   11.5246    0.0000 H   0  0  0  0  0  0  0  0  0  0  0  0
    4.8721   11.5246    0.0000 H   0  0  0  0  0  0  0  0  0  0  0  0
    6.3973   12.0488    0.0000 H   0  0  0  0  0  0  0  0  0  0  0  0
    6.7830   12.7477    0.0000 H   0  0  0  0  0  0  0  0  0  0  0  0
    4.7896    7.0075    0.0000 H   0  0  0  0  0  0  0  0  0  0  0  0
    3.9914    7.0044    0.0000 H   0  0  0  0  0  0  0  0  0  0  0  0
    6.3774    8.3979    0.0000 H   0  0  0  0  0  0  0  0  0  0  0  0
    5.5827    8.0273    0.0000 H   0  0  0  0  0  0  0  0  0  0  0  0
    5.2121    8.8219    0.0000 H   0  0  0  0  0  0  0  0  0  0  0  0
    3.8677   10.8596    0.0000 H   0  0  0  0  0  0  0  0  0  0  0  0
    6.8660    8.9836    0.0000 H   0  0  0  0  0  0  0  0  0  0  0  0
    6.2554    9.4960    0.0000 H   0  0  0  0  0  0  0  0  0  0  0  0
    5.8549   11.0383    0.0000 H   0  0  0  0  0  0  0  0  0  0  0  0
    5.6214   11.8834    0.0000 H   0  0  0  0  0  0  0  0  0  0  0  0
    6.4666   12.1169    0.0000 H   0  0  0  0  0  0  0  0  0  0  0  0
    2.1779   10.0889    0.0000 H   0  0  0  0  0  0  0  0  0  0  0  0
    2.9760   10.0735    0.0000 H   0  0  0  0  0  0  0  0  0  0  0  0
    2.1539    6.9755    0.0000 H   0  0  0  0  0  0  0  0  0  0  0  0
    2.9521    6.9786    0.0000 H   0  0  0  0  0  0  0  0  0  0  0  0
    7.5321   13.1957    0.0000 H   0  0  0  0  0  0  0  0  0  0  0  0
    8.3303   13.2049    0.0000 H   0  0  0  0  0  0  0  0  0  0  0  0
    1.0015    8.1047    0.0000 H   0  0  0  0  0  0  0  0  0  0  0  0
    1.3980    7.4119    0.0000 H   0  0  0  0  0  0  0  0  0  0  0  0
    9.8828   11.7218    0.0000 H   0  0  0  0  0  0  0  0  0  0  0  0
   10.5004   11.0994    0.0000 H   0  0  0  0  0  0  0  0  0  0  0  0
    9.8781   10.4818    0.0000 H   0  0  0  0  0  0  0  0  0  0  0  0
    9.9152   10.5457    0.0000 H   0  0  0  0  0  0  0  0  0  0  0  0
    9.6850    9.6996    0.0000 H   0  0  0  0  0  0  0  0  0  0  0  0
    8.8390    9.9298    0.0000 H   0  0  0  0  0  0  0  0  0  0  0  0
    0.6271    9.7104    0.0000 H   0  0  0  0  0  0  0  0  0  0  0  0
    0.0000    9.0976    0.0000 H   0  0  0  0  0  0  0  0  0  0  0  0
    0.6128    8.4705    0.0000 H   0  0  0  0  0  0  0  0  0  0  0  0
    1.6704   10.2544    0.0000 H   0  0  0  0  0  0  0  0  0  0  0  0
    0.8262   10.4911    0.0000 H   0  0  0  0  0  0  0  0  0  0  0  0
    0.5895    9.6469    0.0000 H   0  0  0  0  0  0  0  0  0  0  0  0
    7.5258    6.3480    0.0000 H   0  0  0  0  0  0  0  0  0  0  0  0
    9.3076    7.1242    0.0000 H   0  0  0  0  0  0  0  0  0  0  0  0
   10.6345    6.0109    0.0000 H   0  0  0  0  0  0  0  0  0  0  0  0
    8.5518    3.5289    0.0000 H   0  0  0  0  0  0  0  0  0  0  0  0
    7.4115    5.6998    0.0000 H   0  0  0  0  0  0  0  0  0  0  0  0
   10.1472    3.2476    0.0000 H   0  0  0  0  0  0  0  0  0  0  0  0
   11.7748    3.8400    0.0000 H   0  0  0  0  0  0  0  0  0  0  0  0
    7.9333    3.3038    0.0000 H   0  0  0  0  0  0  0  0  0  0  0  0
    6.0695    2.7531    0.0000 H   0  0  0  0  0  0  0  0  0  0  0  0
  3 30  1  0  0  0  0
  3 43  1  0  0  0  0
  4 36  2  0  0  0  0
  5 40  1  0  0  0  0
  6 40  2  0  0  0  0
  7 43  2  0  0  0  0
  8 50  1  0  0  0  0
  8106  1  0  0  0  0
  9 52  2  0  0  0  0
 10 55  1  0  0  0  0
 11 55  2  0  0  0  0
 12 47  1  0  0  0  0
 12 52  1  0  0  0  0
 12104  1  0  0  0  0
 13 14  1  0  0  0  0
 13 15  1  0  0  0  0
 13 18  1  0  0  0  0
 13 28  1  6  0  0  0
 14 16  1  0  0  0  0
 14 23  1  0  0  0  0
 14 56  1  1  0  0  0
 15 19  1  0  0  0  0
 15 22  1  0  0  0  0
 15 30  1  1  0  0  0
 16 17  1  0  0  0  0
 16 26  1  0  0  0  0
 16 31  1  6  0  0  0
 17 21  1  0  0  0  0
 17 25  1  0  0  0  0
 17 57  1  1  0  0  0
 18 21  1  0  0  0  0
 18 58  1  0  0  0  0
 18 59  1  0  0  0  0
 19 20  1  0  0  0  0
 19 29  2  0  0  0  0
 20 24  1  0  0  0  0
 20 32  1  0  0  0  0
 20 60  1  6  0  0  0
 21 61  1  0  0  0  0
 21 62  1  0  0  0  0
 22 27  1  0  0  0  0
 22 63  1  0  0  0  0
 22 64  1  0  0  0  0
 23 29  1  0  0  0  0
 23 65  1  0  0  0  0
 23 66  1  0  0  0  0
 24 27  1  0  0  0  0
 24 33  1  0  0  0  0
 24 40  1  6  0  0  0
 25 36  1  0  0  0  0
 25 38  1  0  0  0  0
 25 39  1  0  0  0  0
 26 34  1  0  0  0  0
 26 67  1  0  0  0  0
 26 68  1  0  0  0  0
 27 69  1  0  0  0  0
 27 70  1  0  0  0  0
 28 71  1  0  0  0  0
 28 72  1  0  0  0  0
 28 73  1  0  0  0  0
 29 74  1  0  0  0  0
 30 75  1  0  0  0  0
 30 76  1  0  0  0  0
 31 77  1  0  0  0  0
 31 78  1  0  0  0  0
 31 79  1  0  0  0  0
 32 35  1  0  0  0  0
 32 80  1  0  0  0  0
 32 81  1  0  0  0  0
 33 37  1  0  0  0  0
 33 82  1  0  0  0  0
 33 83  1  0  0  0  0
 34 36  1  0  0  0  0
 34 84  1  0  0  0  0
 34 85  1  0  0  0  0
 35 37  1  0  0  0  0
 35 41  1  0  0  0  0
 35 42  1  0  0  0  0
 37 86  1  0  0  0  0
 37 87  1  0  0  0  0
 38 88  1  0  0  0  0
 38 89  1  0  0  0  0
 38 90  1  0  0  0  0
 39 91  1  0  0  0  0
 39 92  1  0  0  0  0
 39 93  1  0  0  0  0
 41 94  1  0  0  0  0
 41 95  1  0  0  0  0
 41 96  1  0  0  0  0
 42 97  1  0  0  0  0
 42 98  1  0  0  0  0
 42 99  1  0  0  0  0
 43 44  1  0  0  0  0
 44 45  2  0  0  0  0
 44100  1  0  0  0  0
 45 46  1  0  0  0  0
 45101  1  0  0  0  0
 46 47  2  0  0  0  0
 46 48  1  0  0  0  0
 47 49  1  0  0  0  0
 48 50  2  0  0  0  0
 48102  1  0  0  0  0
 49 51  2  0  0  0  0
 49103  1  0  0  0  0
 50 51  1  0  0  0  0
 51105  1  0  0  0  0
 52 53  1  0  0  0  0
 53 54  2  0  0  0  0
 53107  1  0  0  0  0
 54 55  1  0  0  0  0
 54108  1  0  0  0  0
M  CHG  4   1   1   2   1   5  -1  10  -1
M  END

> <PUBCHEM_BONDANNOTATIONS>
13  28  6
14  56  5
15  30  5
16  31  6
17  57  5
20  60  6
24  40  6
46  47  8
46  48  8
47  49  8
48  50  8
49  51  8
50  51  8

$$$$
