159594
  -OEChem-04241304302D

 75 78  0     1  0  0  0  0  0999 V2000
    7.7702   -4.3656    0.0000 O   0  0  0  0  0  0  0  0  0  0  0  0
    6.0760   -4.0055    0.0000 O   0  0  0  0  0  0  0  0  0  0  0  0
   11.6928   -2.5069    0.0000 O   0  0  0  0  0  0  0  0  0  0  0  0
    8.2414    0.5089    0.0000 O   0  0  0  0  0  0  0  0  0  0  0  0
   11.6928   -4.1163    0.0000 O   0  0  0  0  0  0  0  0  0  0  0  0
    2.5878   -2.3933    0.0000 O   0  0  0  0  0  0  0  0  0  0  0  0
    7.0659   -1.1092    0.0000 N   0  0  3  0  0  0  0  0  0  0  0  0
    6.8402    1.5269    0.0000 N   0  0  0  0  0  0  0  0  0  0  0  0
    7.2350   -2.7183    0.0000 C   0  0  2  0  0  0  0  0  0  0  0  0
    8.1486   -2.3116    0.0000 C   0  0  2  0  0  0  0  0  0  0  0  0
    6.5659   -1.9752    0.0000 C   0  0  2  0  0  0  0  0  0  0  0  0
    8.0440   -1.3171    0.0000 C   0  0  0  0  0  0  0  0  0  0  0  0
    9.0146   -2.8116    0.0000 C   0  0  0  0  0  0  0  0  0  0  0  0
    5.5714   -2.0797    0.0000 C   0  0  0  0  0  0  0  0  0  0  0  0
    6.6591   -0.1956    0.0000 C   0  0  0  0  0  0  0  0  0  0  0  0
    7.0271   -3.6965    0.0000 C   0  0  0  0  0  0  0  0  0  0  0  0
    9.8806   -2.3116    0.0000 C   0  0  0  0  0  0  0  0  0  0  0  0
    7.2469    0.6134    0.0000 C   0  0  0  0  0  0  0  0  0  0  0  0
    9.0146   -3.8116    0.0000 C   0  0  0  0  0  0  0  0  0  0  0  0
    4.9836   -1.2707    0.0000 C   0  0  0  0  0  0  0  0  0  0  0  0
    5.1646   -2.9933    0.0000 C   0  0  0  0  0  0  0  0  0  0  0  0
   10.7466   -2.8116    0.0000 C   0  0  0  0  0  0  0  0  0  0  0  0
    9.8806   -4.3116    0.0000 C   0  0  0  0  0  0  0  0  0  0  0  0
   10.7466   -3.8116    0.0000 C   0  0  0  0  0  0  0  0  0  0  0  0
    3.9890   -1.3752    0.0000 C   0  0  0  0  0  0  0  0  0  0  0  0
    4.1701   -3.0978    0.0000 C   0  0  0  0  0  0  0  0  0  0  0  0
    7.4280    2.3360    0.0000 C   0  0  0  0  0  0  0  0  0  0  0  0
    5.8457    1.6315    0.0000 C   0  0  0  0  0  0  0  0  0  0  0  0
    3.5823   -2.2888    0.0000 C   0  0  0  0  0  0  0  0  0  0  0  0
    5.4389    2.5450    0.0000 C   0  0  0  0  0  0  0  0  0  0  0  0
    7.0212    3.2495    0.0000 C   0  0  0  0  0  0  0  0  0  0  0  0
   12.2765   -3.3116    0.0000 C   0  0  0  0  0  0  0  0  0  0  0  0
    4.4444    2.6495    0.0000 C   0  0  0  0  0  0  0  0  0  0  0  0
    7.6090    4.0585    0.0000 C   0  0  0  0  0  0  0  0  0  0  0  0
    7.2023    4.9721    0.0000 C   0  0  0  0  0  0  0  0  0  0  0  0
    4.0377    3.5631    0.0000 C   0  0  0  0  0  0  0  0  0  0  0  0
    2.0000   -1.5843    0.0000 C   0  0  0  0  0  0  0  0  0  0  0  0
    6.6361   -2.8788    0.0000 H   0  0  0  0  0  0  0  0  0  0  0  0
    8.6685   -1.9739    0.0000 H   0  0  0  0  0  0  0  0  0  0  0  0
    6.3437   -2.5540    0.0000 H   0  0  0  0  0  0  0  0  0  0  0  0
    8.6640   -1.3171    0.0000 H   0  0  0  0  0  0  0  0  0  0  0  0
    8.1088   -0.7005    0.0000 H   0  0  0  0  0  0  0  0  0  0  0  0
    6.2284    0.2504    0.0000 H   0  0  0  0  0  0  0  0  0  0  0  0
    6.1451   -0.5423    0.0000 H   0  0  0  0  0  0  0  0  0  0  0  0
    9.8806   -1.6916    0.0000 H   0  0  0  0  0  0  0  0  0  0  0  0
    8.4776   -4.1216    0.0000 H   0  0  0  0  0  0  0  0  0  0  0  0
    5.2357   -0.7043    0.0000 H   0  0  0  0  0  0  0  0  0  0  0  0
    5.5290   -3.4949    0.0000 H   0  0  0  0  0  0  0  0  0  0  0  0
    9.8806   -4.9316    0.0000 H   0  0  0  0  0  0  0  0  0  0  0  0
    7.6413   -4.9721    0.0000 H   0  0  0  0  0  0  0  0  0  0  0  0
    3.6246   -0.8736    0.0000 H   0  0  0  0  0  0  0  0  0  0  0  0
    3.9179   -3.6642    0.0000 H   0  0  0  0  0  0  0  0  0  0  0  0
    7.8587    1.8900    0.0000 H   0  0  0  0  0  0  0  0  0  0  0  0
    7.9420    2.6827    0.0000 H   0  0  0  0  0  0  0  0  0  0  0  0
    5.2441    1.4815    0.0000 H   0  0  0  0  0  0  0  0  0  0  0  0
    5.8889    1.0130    0.0000 H   0  0  0  0  0  0  0  0  0  0  0  0
    6.0405    2.6950    0.0000 H   0  0  0  0  0  0  0  0  0  0  0  0
    5.3957    3.1635    0.0000 H   0  0  0  0  0  0  0  0  0  0  0  0
    6.5906    3.6955    0.0000 H   0  0  0  0  0  0  0  0  0  0  0  0
    6.5072    2.9028    0.0000 H   0  0  0  0  0  0  0  0  0  0  0  0
   12.7373   -3.7263    0.0000 H   0  0  0  0  0  0  0  0  0  0  0  0
   12.7373   -2.8969    0.0000 H   0  0  0  0  0  0  0  0  0  0  0  0
    3.8428    2.4996    0.0000 H   0  0  0  0  0  0  0  0  0  0  0  0
    4.4876    2.0310    0.0000 H   0  0  0  0  0  0  0  0  0  0  0  0
    8.0397    3.6125    0.0000 H   0  0  0  0  0  0  0  0  0  0  0  0
    8.1230    4.4052    0.0000 H   0  0  0  0  0  0  0  0  0  0  0  0
    4.6041    3.8153    0.0000 H   0  0  0  0  0  0  0  0  0  0  0  0
    3.7855    4.1295    0.0000 H   0  0  0  0  0  0  0  0  0  0  0  0
    3.4713    3.3109    0.0000 H   0  0  0  0  0  0  0  0  0  0  0  0
    7.7687    5.2242    0.0000 H   0  0  0  0  0  0  0  0  0  0  0  0
    6.9501    5.5385    0.0000 H   0  0  0  0  0  0  0  0  0  0  0  0
    6.6359    4.7199    0.0000 H   0  0  0  0  0  0  0  0  0  0  0  0
    2.5016   -1.2199    0.0000 H   0  0  0  0  0  0  0  0  0  0  0  0
    1.6356   -1.0827    0.0000 H   0  0  0  0  0  0  0  0  0  0  0  0
    1.4984   -1.9487    0.0000 H   0  0  0  0  0  0  0  0  0  0  0  0
  1 16  1  0  0  0  0
  1 50  1  0  0  0  0
  2 16  2  0  0  0  0
  3 22  1  0  0  0  0
  3 32  1  0  0  0  0
  4 18  2  0  0  0  0
  5 24  1  0  0  0  0
  5 32  1  0  0  0  0
  6 29  1  0  0  0  0
  6 37  1  0  0  0  0
  7 11  1  0  0  0  0
  7 12  1  0  0  0  0
  7 15  1  0  0  0  0
  8 18  1  0  0  0  0
  8 27  1  0  0  0  0
  8 28  1  0  0  0  0
  9 10  1  0  0  0  0
  9 11  1  0  0  0  0
  9 16  1  1  0  0  0
  9 38  1  0  0  0  0
 10 12  1  0  0  0  0
 10 13  1  6  0  0  0
 10 39  1  0  0  0  0
 11 14  1  6  0  0  0
 11 40  1  0  0  0  0
 12 41  1  0  0  0  0
 12 42  1  0  0  0  0
 13 17  2  0  0  0  0
 13 19  1  0  0  0  0
 14 20  2  0  0  0  0
 14 21  1  0  0  0  0
 15 18  1  0  0  0  0
 15 43  1  0  0  0  0
 15 44  1  0  0  0  0
 17 22  1  0  0  0  0
 17 45  1  0  0  0  0
 19 23  2  0  0  0  0
 19 46  1  0  0  0  0
 20 25  1  0  0  0  0
 20 47  1  0  0  0  0
 21 26  2  0  0  0  0
 21 48  1  0  0  0  0
 22 24  2  0  0  0  0
 23 24  1  0  0  0  0
 23 49  1  0  0  0  0
 25 29  2  0  0  0  0
 25 51  1  0  0  0  0
 26 29  1  0  0  0  0
 26 52  1  0  0  0  0
 27 31  1  0  0  0  0
 27 53  1  0  0  0  0
 27 54  1  0  0  0  0
 28 30  1  0  0  0  0
 28 55  1  0  0  0  0
 28 56  1  0  0  0  0
 30 33  1  0  0  0  0
 30 57  1  0  0  0  0
 30 58  1  0  0  0  0
 31 34  1  0  0  0  0
 31 59  1  0  0  0  0
 31 60  1  0  0  0  0
 32 61  1  0  0  0  0
 32 62  1  0  0  0  0
 33 36  1  0  0  0  0
 33 63  1  0  0  0  0
 33 64  1  0  0  0  0
 34 35  1  0  0  0  0
 34 65  1  0  0  0  0
 34 66  1  0  0  0  0
 35 70  1  0  0  0  0
 35 71  1  0  0  0  0
 35 72  1  0  0  0  0
 36 67  1  0  0  0  0
 36 68  1  0  0  0  0
 36 69  1  0  0  0  0
 37 73  1  0  0  0  0
 37 74  1  0  0  0  0
 37 75  1  0  0  0  0
M  END
> <PUBCHEM_COMPOUND_CID>
159594

> <PUBCHEM_COMPOUND_CANONICALIZED>
1

> <PUBCHEM_CACTVS_COMPLEXITY>
734

> <PUBCHEM_CACTVS_HBOND_ACCEPTOR>
7

> <PUBCHEM_CACTVS_HBOND_DONOR>
1

> <PUBCHEM_CACTVS_ROTATABLE_BOND>
12

> <PUBCHEM_CACTVS_SUBSKEYS>
AAADcfB7OAAAAAAAAAAAAAAAAAAAAWJAAAAwYAAAAAAAAEgBQAAAHgAACAAADSzBmAcyDoMABgCIAiHSGACCCAAgIAAIiAGOjIgdZjqEsTu0cCpmxhGOqAe82POOoAABAAAAQABAAAIAAACAAAAAAAAAAA==

> <PUBCHEM_IUPAC_OPENEYE_NAME>
(2R,3R,4S)-4-(1,3-benzodioxol-5-yl)-1-[2-(dibutylamino)-2-oxo-ethyl]-2-(4-methoxyphenyl)pyrrolidine-3-carboxylic acid

> <PUBCHEM_IUPAC_CAS_NAME>
(2R,3R,4S)-4-(1,3-benzodioxol-5-yl)-1-[2-(dibutylamino)-2-oxoethyl]-2-(4-methoxyphenyl)-3-pyrrolidinecarboxylic acid

> <PUBCHEM_IUPAC_NAME>
(2R,3R,4S)-4-(1,3-benzodioxol-5-yl)-1-[2-(dibutylamino)-2-oxoethyl]-2-(4-methoxyphenyl)pyrrolidine-3-carboxylic acid

> <PUBCHEM_IUPAC_SYSTEMATIC_NAME>
(2R,3R,4S)-4-(1,3-benzodioxol-5-yl)-1-[2-(dibutylamino)-2-oxidanylidene-ethyl]-2-(4-methoxyphenyl)pyrrolidine-3-carboxylic acid

> <PUBCHEM_IUPAC_TRADITIONAL_NAME>
(2R,3R,4S)-4-(1,3-benzodioxol-5-yl)-1-[2-(dibutylamino)-2-keto-ethyl]-2-(4-methoxyphenyl)pyrrolidine-3-carboxylic acid

> <PUBCHEM_IUPAC_INCHI>
InChI=1S/C29H38N2O6/c1-4-6-14-30(15-7-5-2)26(32)18-31-17-23(21-10-13-24-25(16-21)37-19-36-24)27(29(33)34)28(31)20-8-11-22(35-3)12-9-20/h8-13,16,23,27-28H,4-7,14-15,17-19H2,1-3H3,(H,33,34)/t23-,27-,28+/m1/s1

> <PUBCHEM_IUPAC_INCHIKEY>
MOTJMGVDPWRKOC-QPVYNBJUSA-N

> <PUBCHEM_XLOGP3_AA>
2.4

> <PUBCHEM_EXACT_MASS>
510.272987

> <PUBCHEM_MOLECULAR_FORMULA>
C29H38N2O6

> <PUBCHEM_MOLECULAR_WEIGHT>
510.62182

> <PUBCHEM_OPENEYE_CAN_SMILES>
CCCCN(CCCC)C(=O)CN1CC(C(C1C2=CC=C(C=C2)OC)C(=O)O)C3=CC4=C(C=C3)OCO4

> <PUBCHEM_OPENEYE_ISO_SMILES>
CCCCN(CCCC)C(=O)CN1C[C@@H]([C@H]([C@@H]1C2=CC=C(C=C2)OC)C(=O)O)C3=CC4=C(C=C3)OCO4

> <PUBCHEM_CACTVS_TPSA>
88.5

> <PUBCHEM_MONOISOTOPIC_WEIGHT>
510.272987

> <PUBCHEM_TOTAL_CHARGE>
0

> <PUBCHEM_HEAVY_ATOM_COUNT>
37

> <PUBCHEM_ATOM_DEF_STEREO_COUNT>
3

> <PUBCHEM_ATOM_UDEF_STEREO_COUNT>
0

> <PUBCHEM_BOND_DEF_STEREO_COUNT>
0

> <PUBCHEM_BOND_UDEF_STEREO_COUNT>
0

> <PUBCHEM_ISOTOPIC_ATOM_COUNT>
0

> <PUBCHEM_COMPONENT_COUNT>
1

> <PUBCHEM_CACTVS_TAUTO_COUNT>
1

> <PUBCHEM_COORDINATE_TYPE>
1
5
255

> <PUBCHEM_BONDANNOTATIONS>
10  13  6
11  14  6
13  17  8
13  19  8
14  20  8
14  21  8
17  22  8
19  23  8
20  25  8
21  26  8
22  24  8
23  24  8
25  29  8
26  29  8
9  16  5

$$$$
