9843631
  -OEChem-04241304372D

 45 48  0     0  0  0  0  0  0999 V2000
    7.9128    0.1488    0.0000 S   0  0  0  0  0  0  0  0  0  0  0  0
    8.8834    2.6433    0.0000 O   0  0  0  0  0  0  0  0  0  0  0  0
    8.9128    0.1488    0.0000 O   0  0  0  0  0  0  0  0  0  0  0  0
    6.9128    0.1488    0.0000 O   0  0  0  0  0  0  0  0  0  0  0  0
    2.6691    0.2420    0.0000 O   0  0  0  0  0  0  0  0  0  0  0  0
    7.9128    1.1488    0.0000 N   0  0  0  0  0  0  0  0  0  0  0  0
    9.8615    2.8512    0.0000 N   0  0  0  0  0  0  0  0  0  0  0  0
    3.4782    1.6433    0.0000 N   0  0  0  0  0  0  0  0  0  0  0  0
    7.9128   -0.8512    0.0000 C   0  0  0  0  0  0  0  0  0  0  0  0
    7.0468   -1.3512    0.0000 C   0  0  0  0  0  0  0  0  0  0  0  0
    6.1808   -0.8512    0.0000 C   0  0  0  0  0  0  0  0  0  0  0  0
    8.7788   -1.3512    0.0000 C   0  0  0  0  0  0  0  0  0  0  0  0
    8.7788    1.6488    0.0000 C   0  0  0  0  0  0  0  0  0  0  0  0
    7.0468   -2.3512    0.0000 C   0  0  0  0  0  0  0  0  0  0  0  0
    9.6924    1.2421    0.0000 C   0  0  0  0  0  0  0  0  0  0  0  0
    5.3147   -1.3512    0.0000 C   0  0  0  0  0  0  0  0  0  0  0  0
    6.1808    0.1488    0.0000 C   0  0  0  0  0  0  0  0  0  0  0  0
    8.7788   -2.3512    0.0000 C   0  0  0  0  0  0  0  0  0  0  0  0
    7.9128   -2.8512    0.0000 C   0  0  0  0  0  0  0  0  0  0  0  0
    4.4487    0.1488    0.0000 C   0  0  0  0  0  0  0  0  0  0  0  0
   10.3615    1.9852    0.0000 C   0  0  0  0  0  0  0  0  0  0  0  0
    4.4487   -0.8512    0.0000 C   0  0  0  0  0  0  0  0  0  0  0  0
    5.3147    0.6488    0.0000 C   0  0  0  0  0  0  0  0  0  0  0  0
    9.9003    0.2639    0.0000 C   0  0  0  0  0  0  0  0  0  0  0  0
   11.3560    1.8807    0.0000 C   0  0  0  0  0  0  0  0  0  0  0  0
    3.5827    0.6488    0.0000 C   0  0  0  0  0  0  0  0  0  0  0  0
    2.0000    0.9852    0.0000 C   0  0  0  0  0  0  0  0  0  0  0  0
    2.5000    1.8512    0.0000 C   0  0  0  0  0  0  0  0  0  0  0  0
    7.3759    1.4588    0.0000 H   0  0  0  0  0  0  0  0  0  0  0  0
    9.3158   -1.0412    0.0000 H   0  0  0  0  0  0  0  0  0  0  0  0
    6.5098   -2.6612    0.0000 H   0  0  0  0  0  0  0  0  0  0  0  0
    5.3147   -1.9712    0.0000 H   0  0  0  0  0  0  0  0  0  0  0  0
    6.7177    0.4588    0.0000 H   0  0  0  0  0  0  0  0  0  0  0  0
    9.3158   -2.6612    0.0000 H   0  0  0  0  0  0  0  0  0  0  0  0
    7.9128   -3.4712    0.0000 H   0  0  0  0  0  0  0  0  0  0  0  0
    3.9118   -1.1612    0.0000 H   0  0  0  0  0  0  0  0  0  0  0  0
    5.3147    1.2688    0.0000 H   0  0  0  0  0  0  0  0  0  0  0  0
    9.2938    0.1350    0.0000 H   0  0  0  0  0  0  0  0  0  0  0  0
   10.0292   -0.3426    0.0000 H   0  0  0  0  0  0  0  0  0  0  0  0
   10.5067    0.3928    0.0000 H   0  0  0  0  0  0  0  0  0  0  0  0
   11.2912    1.2641    0.0000 H   0  0  0  0  0  0  0  0  0  0  0  0
   11.9726    1.8159    0.0000 H   0  0  0  0  0  0  0  0  0  0  0  0
   11.4208    2.4973    0.0000 H   0  0  0  0  0  0  0  0  0  0  0  0
    1.3834    0.9204    0.0000 H   0  0  0  0  0  0  0  0  0  0  0  0
    2.2478    2.4176    0.0000 H   0  0  0  0  0  0  0  0  0  0  0  0
  1  3  2  0  0  0  0
  1  4  2  0  0  0  0
  1  6  1  0  0  0  0
  1  9  1  0  0  0  0
  2  7  1  0  0  0  0
  2 13  1  0  0  0  0
  5 26  1  0  0  0  0
  5 27  1  0  0  0  0
  6 13  1  0  0  0  0
  6 29  1  0  0  0  0
  7 21  2  0  0  0  0
  8 26  2  0  0  0  0
  8 28  1  0  0  0  0
  9 10  1  0  0  0  0
  9 12  2  0  0  0  0
 10 11  1  0  0  0  0
 10 14  2  0  0  0  0
 11 16  2  0  0  0  0
 11 17  1  0  0  0  0
 12 18  1  0  0  0  0
 12 30  1  0  0  0  0
 13 15  2  0  0  0  0
 14 19  1  0  0  0  0
 14 31  1  0  0  0  0
 15 21  1  0  0  0  0
 15 24  1  0  0  0  0
 16 22  1  0  0  0  0
 16 32  1  0  0  0  0
 17 23  2  0  0  0  0
 17 33  1  0  0  0  0
 18 19  2  0  0  0  0
 18 34  1  0  0  0  0
 19 35  1  0  0  0  0
 20 22  2  0  0  0  0
 20 23  1  0  0  0  0
 20 26  1  0  0  0  0
 21 25  1  0  0  0  0
 22 36  1  0  0  0  0
 23 37  1  0  0  0  0
 24 38  1  0  0  0  0
 24 39  1  0  0  0  0
 24 40  1  0  0  0  0
 25 41  1  0  0  0  0
 25 42  1  0  0  0  0
 25 43  1  0  0  0  0
 27 28  2  0  0  0  0
 27 44  1  0  0  0  0
 28 45  1  0  0  0  0
M  END
> <PUBCHEM_COMPOUND_CID>
9843631

> <PUBCHEM_COMPOUND_CANONICALIZED>
1

> <PUBCHEM_CACTVS_COMPLEXITY>
617

> <PUBCHEM_CACTVS_HBOND_ACCEPTOR>
7

> <PUBCHEM_CACTVS_HBOND_DONOR>
1

> <PUBCHEM_CACTVS_ROTATABLE_BOND>
5

> <PUBCHEM_CACTVS_SUBSKEYS>
AAADceB7OABAAAAAAAAAAAAAAAAAAWLAAAAwYAAAAAAAAAAB9AAAHgQUQAAADAjh3gY+hZJYFEKpAz131nTCiDA/YiAo2Dm/bNsOJrqA9fuPPYjmxhmY6ceYyPCOwAAAAAAEAACAAAAAAAgAAAAAAAAAAA==

> <PUBCHEM_IUPAC_OPENEYE_NAME>
N-(3,4-dimethylisoxazol-5-yl)-2-(4-oxazol-2-ylphenyl)benzenesulfonamide

> <PUBCHEM_IUPAC_CAS_NAME>
N-(3,4-dimethyl-5-isoxazolyl)-2-[4-(2-oxazolyl)phenyl]benzenesulfonamide

> <PUBCHEM_IUPAC_NAME>
N-(3,4-dimethyl-1,2-oxazol-5-yl)-2-[4-(1,3-oxazol-2-yl)phenyl]benzenesulfonamide

> <PUBCHEM_IUPAC_SYSTEMATIC_NAME>
N-(3,4-dimethyl-1,2-oxazol-5-yl)-2-[4-(1,3-oxazol-2-yl)phenyl]benzenesulfonamide

> <PUBCHEM_IUPAC_TRADITIONAL_NAME>
N-(3,4-dimethylisoxazol-5-yl)-2-(4-oxazol-2-ylphenyl)benzenesulfonamide

> <PUBCHEM_IUPAC_INCHI>
InChI=1S/C20H17N3O4S/c1-13-14(2)22-27-19(13)23-28(24,25)18-6-4-3-5-17(18)15-7-9-16(10-8-15)20-21-11-12-26-20/h3-12,23H,1-2H3

> <PUBCHEM_IUPAC_INCHIKEY>
LJGUZUROJOJEMI-UHFFFAOYSA-N

> <PUBCHEM_XLOGP3_AA>
3.7

> <PUBCHEM_EXACT_MASS>
395.093977

> <PUBCHEM_MOLECULAR_FORMULA>
C20H17N3O4S

> <PUBCHEM_MOLECULAR_WEIGHT>
395.43168

> <PUBCHEM_OPENEYE_CAN_SMILES>
CC1=C(ON=C1C)NS(=O)(=O)C2=CC=CC=C2C3=CC=C(C=C3)C4=NC=CO4

> <PUBCHEM_OPENEYE_ISO_SMILES>
CC1=C(ON=C1C)NS(=O)(=O)C2=CC=CC=C2C3=CC=C(C=C3)C4=NC=CO4

> <PUBCHEM_CACTVS_TPSA>
107

> <PUBCHEM_MONOISOTOPIC_WEIGHT>
395.093977

> <PUBCHEM_TOTAL_CHARGE>
0

> <PUBCHEM_HEAVY_ATOM_COUNT>
28

> <PUBCHEM_ATOM_DEF_STEREO_COUNT>
0

> <PUBCHEM_ATOM_UDEF_STEREO_COUNT>
0

> <PUBCHEM_BOND_DEF_STEREO_COUNT>
0

> <PUBCHEM_BOND_UDEF_STEREO_COUNT>
0

> <PUBCHEM_ISOTOPIC_ATOM_COUNT>
0

> <PUBCHEM_COMPONENT_COUNT>
1

> <PUBCHEM_CACTVS_TAUTO_COUNT>
5

> <PUBCHEM_COORDINATE_TYPE>
1
5
255

> <PUBCHEM_BONDANNOTATIONS>
10  14  8
11  16  8
11  17  8
12  18  8
13  15  8
14  19  8
15  21  8
16  22  8
17  23  8
18  19  8
2  13  8
2  7  8
20  22  8
20  23  8
27  28  8
5  26  8
5  27  8
7  21  8
8  26  8
8  28  8
9  10  8
9  12  8

$$$$
