23693553
  -OEChem-04231304152D

 97 98  0     1  0  0  0  0  0999 V2000
   10.4120   -1.0248    0.0000 Na  0  3  0  0  0  0  0  0  0  0  0  0
    7.3543   -2.9352    0.0000 O   0  0  0  0  0  0  0  0  0  0  0  0
    7.5605   -1.9568    0.0000 O   0  0  0  0  0  0  0  0  0  0  0  0
    5.6103   -0.3869    0.0000 O   0  0  0  0  0  0  0  0  0  0  0  0
    9.6677   -0.3569    0.0000 O   0  5  0  0  0  0  0  0  0  0  0  0
    8.5110   -1.6461    0.0000 O   0  0  0  0  0  0  0  0  0  0  0  0
    5.9674    5.2309    0.0000 O   0  0  0  0  0  0  0  0  0  0  0  0
    4.3211    5.7690    0.0000 O   0  0  0  0  0  0  0  0  0  0  0  0
    6.1975   -4.2244    0.0000 N   0  0  0  0  0  0  0  0  0  0  0  0
    5.6594   -2.5781    0.0000 N   0  0  0  0  0  0  0  0  0  0  0  0
    7.0224   -0.3104    0.0000 N   0  0  0  0  0  0  0  0  0  0  0  0
    6.6353    2.0523    0.0000 N   0  0  0  0  0  0  0  0  0  0  0  0
    4.6783    4.0742    0.0000 N   0  0  0  0  0  0  0  0  0  0  0  0
    5.2470   -4.5351    0.0000 C   0  0  1  0  0  0  0  0  0  0  0  0
    6.9418   -4.8923    0.0000 C   0  0  2  0  0  0  0  0  0  0  0  0
    5.0408   -5.5136    0.0000 C   0  0  0  0  0  0  0  0  0  0  0  0
    6.7356   -5.8708    0.0000 C   0  0  0  0  0  0  0  0  0  0  0  0
    5.7851   -6.1814    0.0000 C   0  0  0  0  0  0  0  0  0  0  0  0
    5.8657   -1.5996    0.0000 C   0  0  1  0  0  0  0  0  0  0  0  0
    4.1709   -1.2424    0.0000 C   0  0  0  0  0  0  0  0  0  0  0  0
    5.1214   -0.9318    0.0000 C   0  0  0  0  0  0  0  0  0  0  0  0
    6.4037   -3.2459    0.0000 C   0  0  0  0  0  0  0  0  0  0  0  0
    4.5027   -3.8672    0.0000 C   0  0  0  0  0  0  0  0  0  0  0  0
    7.8924   -4.5816    0.0000 C   0  0  0  0  0  0  0  0  0  0  0  0
    6.8162   -1.2889    0.0000 C   0  0  0  0  0  0  0  0  0  0  0  0
    3.2203   -1.5531    0.0000 C   0  0  0  0  0  0  0  0  0  0  0  0
    3.8602   -0.2919    0.0000 C   0  0  0  0  0  0  0  0  0  0  0  0
    4.4816   -2.1930    0.0000 C   0  0  0  0  0  0  0  0  0  0  0  0
    7.9729    0.0003    0.0000 C   0  0  2  0  0  0  0  0  0  0  0  0
    8.1791    0.9788    0.0000 C   0  0  0  0  0  0  0  0  0  0  0  0
    6.2781    0.3574    0.0000 C   0  0  0  0  0  0  0  0  0  0  0  0
    5.9674    1.3080    0.0000 C   0  0  1  0  0  0  0  0  0  0  0  0
    9.1297    1.2894    0.0000 C   0  0  0  0  0  0  0  0  0  0  0  0
    4.9889    1.5142    0.0000 C   0  0  0  0  0  0  0  0  0  0  0  0
    8.7172   -0.6676    0.0000 C   0  0  0  0  0  0  0  0  0  0  0  0
    4.6783    2.4647    0.0000 C   0  0  0  0  0  0  0  0  0  0  0  0
    9.3359    2.2679    0.0000 C   0  0  0  0  0  0  0  0  0  0  0  0
    3.7320    2.7694    0.0000 C   0  0  0  0  0  0  0  0  0  0  0  0
    5.2619    3.2694    0.0000 C   0  0  0  0  0  0  0  0  0  0  0  0
    3.7320    3.7694    0.0000 C   0  0  0  0  0  0  0  0  0  0  0  0
   10.2864    2.5786    0.0000 C   0  0  0  0  0  0  0  0  0  0  0  0
    2.8660    2.2694    0.0000 C   0  0  0  0  0  0  0  0  0  0  0  0
    2.8660    4.2694    0.0000 C   0  0  0  0  0  0  0  0  0  0  0  0
    2.0000    2.7694    0.0000 C   0  0  0  0  0  0  0  0  0  0  0  0
    4.9889    5.0247    0.0000 C   0  0  0  0  0  0  0  0  0  0  0  0
    2.0000    3.7694    0.0000 C   0  0  0  0  0  0  0  0  0  0  0  0
    6.2781    6.1814    0.0000 C   0  0  0  0  0  0  0  0  0  0  0  0
    5.3749   -3.9284    0.0000 H   0  0  0  0  0  0  0  0  0  0  0  0
    7.0697   -4.2856    0.0000 H   0  0  0  0  0  0  0  0  0  0  0  0
    6.8230   -6.4846    0.0000 H   0  0  0  0  0  0  0  0  0  0  0  0
    4.4655   -5.2823    0.0000 H   0  0  0  0  0  0  0  0  0  0  0  0
    4.7132   -6.0400    0.0000 H   0  0  0  0  0  0  0  0  0  0  0  0
    7.3553   -5.8913    0.0000 H   0  0  0  0  0  0  0  0  0  0  0  0
    5.2972   -6.5640    0.0000 H   0  0  0  0  0  0  0  0  0  0  0  0
    6.0771   -6.7284    0.0000 H   0  0  0  0  0  0  0  0  0  0  0  0
    5.2763   -1.7922    0.0000 H   0  0  0  0  0  0  0  0  0  0  0  0
    5.6093   -0.5492    0.0000 H   0  0  0  0  0  0  0  0  0  0  0  0
    4.8294   -0.3848    0.0000 H   0  0  0  0  0  0  0  0  0  0  0  0
    8.0850   -5.1709    0.0000 H   0  0  0  0  0  0  0  0  0  0  0  0
    8.4817   -4.3890    0.0000 H   0  0  0  0  0  0  0  0  0  0  0  0
    7.6997   -3.9923    0.0000 H   0  0  0  0  0  0  0  0  0  0  0  0
    4.9168   -3.4058    0.0000 H   0  0  0  0  0  0  0  0  0  0  0  0
    4.0412   -3.4532    0.0000 H   0  0  0  0  0  0  0  0  0  0  0  0
    4.0886   -4.3287    0.0000 H   0  0  0  0  0  0  0  0  0  0  0  0
    5.0701   -2.7707    0.0000 H   0  0  0  0  0  0  0  0  0  0  0  0
    3.0277   -0.9638    0.0000 H   0  0  0  0  0  0  0  0  0  0  0  0
    2.6310   -1.7457    0.0000 H   0  0  0  0  0  0  0  0  0  0  0  0
    3.4130   -2.1424    0.0000 H   0  0  0  0  0  0  0  0  0  0  0  0
    4.4495   -0.0992    0.0000 H   0  0  0  0  0  0  0  0  0  0  0  0
    3.6676    0.2975    0.0000 H   0  0  0  0  0  0  0  0  0  0  0  0
    3.2709   -0.4845    0.0000 H   0  0  0  0  0  0  0  0  0  0  0  0
    3.8923   -2.3856    0.0000 H   0  0  0  0  0  0  0  0  0  0  0  0
    4.6742   -2.7823    0.0000 H   0  0  0  0  0  0  0  0  0  0  0  0
    5.0709   -2.0003    0.0000 H   0  0  0  0  0  0  0  0  0  0  0  0
    7.8451   -0.6064    0.0000 H   0  0  0  0  0  0  0  0  0  0  0  0
    8.0918    1.5926    0.0000 H   0  0  0  0  0  0  0  0  0  0  0  0
    7.5595    0.9993    0.0000 H   0  0  0  0  0  0  0  0  0  0  0  0
    5.7748    1.8973    0.0000 H   0  0  0  0  0  0  0  0  0  0  0  0
    9.2170    0.6756    0.0000 H   0  0  0  0  0  0  0  0  0  0  0  0
    9.7493    1.2689    0.0000 H   0  0  0  0  0  0  0  0  0  0  0  0
    4.3751    1.4268    0.0000 H   0  0  0  0  0  0  0  0  0  0  0  0
    4.9684    0.8945    0.0000 H   0  0  0  0  0  0  0  0  0  0  0  0
    9.2485    2.8818    0.0000 H   0  0  0  0  0  0  0  0  0  0  0  0
    8.7162    2.2885    0.0000 H   0  0  0  0  0  0  0  0  0  0  0  0
    7.2420    1.9244    0.0000 H   0  0  0  0  0  0  0  0  0  0  0  0
    6.4427    2.6416    0.0000 H   0  0  0  0  0  0  0  0  0  0  0  0
    5.8819    3.2694    0.0000 H   0  0  0  0  0  0  0  0  0  0  0  0
   10.4790    1.9893    0.0000 H   0  0  0  0  0  0  0  0  0  0  0  0
   10.8757    2.7712    0.0000 H   0  0  0  0  0  0  0  0  0  0  0  0
   10.0938    3.1679    0.0000 H   0  0  0  0  0  0  0  0  0  0  0  0
    2.8660    1.6494    0.0000 H   0  0  0  0  0  0  0  0  0  0  0  0
    2.8660    4.8894    0.0000 H   0  0  0  0  0  0  0  0  0  0  0  0
    1.4631    2.4594    0.0000 H   0  0  0  0  0  0  0  0  0  0  0  0
    1.4631    4.0794    0.0000 H   0  0  0  0  0  0  0  0  0  0  0  0
    6.8674    5.9888    0.0000 H   0  0  0  0  0  0  0  0  0  0  0  0
    6.4707    6.7708    0.0000 H   0  0  0  0  0  0  0  0  0  0  0  0
    5.6888    6.3740    0.0000 H   0  0  0  0  0  0  0  0  0  0  0  0
  2 22  2  0  0  0  0
  3 25  2  0  0  0  0
  4 31  2  0  0  0  0
  5 35  1  0  0  0  0
  6 35  2  0  0  0  0
  7 45  1  0  0  0  0
  7 47  1  0  0  0  0
  8 45  2  0  0  0  0
  9 14  1  0  0  0  0
  9 15  1  0  0  0  0
  9 22  1  0  0  0  0
 19 10  1  1  0  0  0
 10 22  1  0  0  0  0
 10 65  1  0  0  0  0
 11 25  1  0  0  0  0
 29 11  1  6  0  0  0
 11 31  1  0  0  0  0
 32 12  1  1  0  0  0
 12 85  1  0  0  0  0
 12 86  1  0  0  0  0
 13 39  1  0  0  0  0
 13 40  1  0  0  0  0
 13 45  1  0  0  0  0
 14 16  1  0  0  0  0
 14 23  1  1  0  0  0
 14 48  1  0  0  0  0
 15 17  1  0  0  0  0
 15 24  1  1  0  0  0
 15 49  1  0  0  0  0
 16 18  1  0  0  0  0
 16 51  1  0  0  0  0
 16 52  1  0  0  0  0
 17 18  1  0  0  0  0
 17 50  1  0  0  0  0
 17 53  1  0  0  0  0
 18 54  1  0  0  0  0
 18 55  1  0  0  0  0
 19 21  1  0  0  0  0
 19 25  1  0  0  0  0
 19 56  1  0  0  0  0
 20 21  1  0  0  0  0
 20 26  1  0  0  0  0
 20 27  1  0  0  0  0
 20 28  1  0  0  0  0
 21 57  1  0  0  0  0
 21 58  1  0  0  0  0
 23 62  1  0  0  0  0
 23 63  1  0  0  0  0
 23 64  1  0  0  0  0
 24 59  1  0  0  0  0
 24 60  1  0  0  0  0
 24 61  1  0  0  0  0
 26 66  1  0  0  0  0
 26 67  1  0  0  0  0
 26 68  1  0  0  0  0
 27 69  1  0  0  0  0
 27 70  1  0  0  0  0
 27 71  1  0  0  0  0
 28 72  1  0  0  0  0
 28 73  1  0  0  0  0
 28 74  1  0  0  0  0
 29 30  1  0  0  0  0
 29 35  1  0  0  0  0
 29 75  1  0  0  0  0
 30 33  1  0  0  0  0
 30 76  1  0  0  0  0
 30 77  1  0  0  0  0
 31 32  1  0  0  0  0
 32 34  1  0  0  0  0
 32 78  1  0  0  0  0
 33 37  1  0  0  0  0
 33 79  1  0  0  0  0
 33 80  1  0  0  0  0
 34 36  1  0  0  0  0
 34 81  1  0  0  0  0
 34 82  1  0  0  0  0
 36 38  1  0  0  0  0
 36 39  2  0  0  0  0
 37 41  1  0  0  0  0
 37 83  1  0  0  0  0
 37 84  1  0  0  0  0
 38 40  1  0  0  0  0
 38 42  2  0  0  0  0
 39 87  1  0  0  0  0
 40 43  2  0  0  0  0
 41 88  1  0  0  0  0
 41 89  1  0  0  0  0
 41 90  1  0  0  0  0
 42 44  1  0  0  0  0
 42 91  1  0  0  0  0
 43 46  1  0  0  0  0
 43 92  1  0  0  0  0
 44 46  2  0  0  0  0
 44 93  1  0  0  0  0
 46 94  1  0  0  0  0
 47 95  1  0  0  0  0
 47 96  1  0  0  0  0
 47 97  1  0  0  0  0
M  CHG  2   1   1   5  -1
M  END
> <PUBCHEM_COMPOUND_CID>
23693553

> <PUBCHEM_COMPOUND_CANONICALIZED>
1

> <PUBCHEM_CACTVS_COMPLEXITY>
1090

> <PUBCHEM_CACTVS_HBOND_ACCEPTOR>
8

> <PUBCHEM_CACTVS_HBOND_DONOR>
2

> <PUBCHEM_CACTVS_ROTATABLE_BOND>
13

> <PUBCHEM_CACTVS_SUBSKEYS>
AAADcfB/uCAAAAAAAAAAAAAAAAAAAWAAAAA8QAAAAAAAAFgB8AAAHgAQAAAADijBngY/yPPMFACoAzX3XACCgCAxAiAI2KG4ZJiKYPLAkbGUIAhsliLYyAeYycCPgAAAAAACAAAAAAAAAAQAAAAAAAAAAA==

> <PUBCHEM_IUPAC_OPENEYE_NAME>
sodium;(2R)-2-[[(2R)-2-amino-3-(1-methoxycarbonylindol-3-yl)propanoyl]-[(2S)-2-[[(2R,6S)-2,6-dimethylpiperidine-1-carbonyl]amino]-4,4-dimethyl-pentanoyl]amino]hexanoate

> <PUBCHEM_IUPAC_CAS_NAME>
sodium;(2R)-2-[[(2R)-2-amino-3-(1-methoxycarbonyl-3-indolyl)-1-oxopropyl]-[(2S)-2-[[[(2R,6S)-2,6-dimethyl-1-piperidinyl]-oxomethyl]amino]-4,4-dimethyl-1-oxopentyl]amino]hexanoate

> <PUBCHEM_IUPAC_NAME>
sodium;(2R)-2-[[(2R)-2-amino-3-(1-methoxycarbonylindol-3-yl)propanoyl]-[(2S)-2-[[(2R,6S)-2,6-dimethylpiperidine-1-carbonyl]amino]-4,4-dimethylpentanoyl]amino]hexanoate

> <PUBCHEM_IUPAC_SYSTEMATIC_NAME>
sodium;(2R)-2-[[(2R)-2-azanyl-3-(1-methoxycarbonylindol-3-yl)propanoyl]-[(2S)-2-[[(2R,6S)-2,6-dimethylpiperidin-1-yl]carbonylamino]-4,4-dimethyl-pentanoyl]amino]hexanoate

> <PUBCHEM_IUPAC_TRADITIONAL_NAME>
sodium;(2R)-2-[[(2R)-2-amino-3-(1-carbomethoxyindol-3-yl)propanoyl]-[(2S)-2-[[(2R,6S)-2,6-dimethylpiperidine-1-carbonyl]amino]-4,4-dimethyl-pentanoyl]amino]hexanoate

> <PUBCHEM_IUPAC_INCHI>
InChI=1S/C34H51N5O7.Na/c1-8-9-16-28(31(42)43)39(29(40)25(35)18-23-20-37(33(45)46-7)27-17-11-10-15-24(23)27)30(41)26(19-34(4,5)6)36-32(44)38-21(2)13-12-14-22(38)3;/h10-11,15,17,20-22,25-26,28H,8-9,12-14,16,18-19,35H2,1-7H3,(H,36,44)(H,42,43);/q;+1/p-1/t21-,22+,25-,26+,28-;/m1./s1

> <PUBCHEM_IUPAC_INCHIKEY>
JFIJJAJAXSAGIH-IVZJRGRDSA-M

> <PUBCHEM_EXACT_MASS>
663.360793

> <PUBCHEM_MOLECULAR_FORMULA>
C34H50N5NaO7

> <PUBCHEM_MOLECULAR_WEIGHT>
663.779869

> <PUBCHEM_OPENEYE_CAN_SMILES>
CCCCC(C(=O)[O-])N(C(=O)C(CC1=CN(C2=CC=CC=C21)C(=O)OC)N)C(=O)C(CC(C)(C)C)NC(=O)N3C(CCCC3C)C.[Na+]

> <PUBCHEM_OPENEYE_ISO_SMILES>
CCCC[C@H](C(=O)[O-])N(C(=O)[C@@H](CC1=CN(C2=CC=CC=C21)C(=O)OC)N)C(=O)[C@H](CC(C)(C)C)NC(=O)N3[C@@H](CCC[C@@H]3C)C.[Na+]

> <PUBCHEM_CACTVS_TPSA>
167

> <PUBCHEM_MONOISOTOPIC_WEIGHT>
663.360793

> <PUBCHEM_TOTAL_CHARGE>
0

> <PUBCHEM_HEAVY_ATOM_COUNT>
47

> <PUBCHEM_ATOM_DEF_STEREO_COUNT>
5

> <PUBCHEM_ATOM_UDEF_STEREO_COUNT>
0

> <PUBCHEM_BOND_DEF_STEREO_COUNT>
0

> <PUBCHEM_BOND_UDEF_STEREO_COUNT>
0

> <PUBCHEM_ISOTOPIC_ATOM_COUNT>
0

> <PUBCHEM_COMPONENT_COUNT>
2

> <PUBCHEM_CACTVS_TAUTO_COUNT>
2

> <PUBCHEM_NONSTANDARDBOND>
1  5  7

> <PUBCHEM_COORDINATE_TYPE>
1
5
255

> <PUBCHEM_BONDANNOTATIONS>
19  10  5
29  11  6
32  12  5
13  39  8
13  40  8
14  23  5
15  24  5
36  38  8
36  39  8
38  40  8
38  42  8
40  43  8
42  44  8
43  46  8
44  46  8

$$$$
