177236
  -OEChem-04241304312D

 52 54  0     1  0  0  0  0  0999 V2000
    4.0981    0.4151    0.0000 O   0  0  0  0  0  0  0  0  0  0  0  0
    6.3301   -0.4510    0.0000 O   0  0  0  0  0  0  0  0  0  0  0  0
    6.3301    1.5490    0.0000 O   0  0  0  0  0  0  0  0  0  0  0  0
    4.5981    1.5490    0.0000 O   0  0  0  0  0  0  0  0  0  0  0  0
    9.7942   -0.4510    0.0000 O   0  0  0  0  0  0  0  0  0  0  0  0
    8.0622    2.5490    0.0000 O   0  0  0  0  0  0  0  0  0  0  0  0
    8.0622   -0.4510    0.0000 N   0  0  0  0  0  0  0  0  0  0  0  0
    7.1962    1.0490    0.0000 N   0  0  0  0  0  0  0  0  0  0  0  0
    4.5981   -0.4510    0.0000 C   0  0  0  0  0  0  0  0  0  0  0  0
    5.4641    0.0490    0.0000 C   0  0  1  0  0  0  0  0  0  0  0  0
    3.7320   -0.9510    0.0000 C   0  0  0  0  0  0  0  0  0  0  0  0
    5.0981   -1.3170    0.0000 C   0  0  0  0  0  0  0  0  0  0  0  0
    3.7320   -1.9510    0.0000 C   0  0  0  0  0  0  0  0  0  0  0  0
    6.0981   -1.3170    0.0000 C   0  0  0  0  0  0  0  0  0  0  0  0
    2.8660   -0.4510    0.0000 C   0  0  0  0  0  0  0  0  0  0  0  0
    4.5981   -2.1830    0.0000 C   0  0  0  0  0  0  0  0  0  0  0  0
    5.4641    1.0490    0.0000 C   0  0  0  0  0  0  0  0  0  0  0  0
    3.0981    0.4151    0.0000 C   0  0  0  0  0  0  0  0  0  0  0  0
    6.5981   -2.1830    0.0000 C   0  0  0  0  0  0  0  0  0  0  0  0
    2.8660   -2.4510    0.0000 C   0  0  0  0  0  0  0  0  0  0  0  0
    5.0981   -3.0490    0.0000 C   0  0  0  0  0  0  0  0  0  0  0  0
    2.0000   -0.9510    0.0000 C   0  0  0  0  0  0  0  0  0  0  0  0
    6.0981   -3.0490    0.0000 C   0  0  0  0  0  0  0  0  0  0  0  0
    2.0000   -1.9510    0.0000 C   0  0  0  0  0  0  0  0  0  0  0  0
    7.1962    0.0490    0.0000 C   0  0  0  0  0  0  0  0  0  0  0  0
    8.9282    0.0490    0.0000 C   0  0  0  0  0  0  0  0  0  0  0  0
    8.0622    1.5490    0.0000 C   0  0  0  0  0  0  0  0  0  0  0  0
    8.9282    1.0490    0.0000 C   0  0  0  0  0  0  0  0  0  0  0  0
   10.6603    0.0490    0.0000 C   0  0  0  0  0  0  0  0  0  0  0  0
    8.9282    3.0490    0.0000 C   0  0  0  0  0  0  0  0  0  0  0  0
    5.4641   -0.5710    0.0000 H   0  0  0  0  0  0  0  0  0  0  0  0
    4.2690   -2.2610    0.0000 H   0  0  0  0  0  0  0  0  0  0  0  0
    6.4081   -0.7801    0.0000 H   0  0  0  0  0  0  0  0  0  0  0  0
    2.8660    0.1690    0.0000 H   0  0  0  0  0  0  0  0  0  0  0  0
    3.9781   -2.1830    0.0000 H   0  0  0  0  0  0  0  0  0  0  0  0
    3.0981    1.0351    0.0000 H   0  0  0  0  0  0  0  0  0  0  0  0
    2.4781    0.4151    0.0000 H   0  0  0  0  0  0  0  0  0  0  0  0
    3.0981   -0.2049    0.0000 H   0  0  0  0  0  0  0  0  0  0  0  0
    2.8660   -3.0710    0.0000 H   0  0  0  0  0  0  0  0  0  0  0  0
    7.2181   -2.1830    0.0000 H   0  0  0  0  0  0  0  0  0  0  0  0
    1.4631   -0.6410    0.0000 H   0  0  0  0  0  0  0  0  0  0  0  0
    4.7881   -3.5860    0.0000 H   0  0  0  0  0  0  0  0  0  0  0  0
    1.4631   -2.2610    0.0000 H   0  0  0  0  0  0  0  0  0  0  0  0
    6.4081   -3.5860    0.0000 H   0  0  0  0  0  0  0  0  0  0  0  0
    6.3301    2.1690    0.0000 H   0  0  0  0  0  0  0  0  0  0  0  0
    9.4651    1.3590    0.0000 H   0  0  0  0  0  0  0  0  0  0  0  0
   10.9703   -0.4879    0.0000 H   0  0  0  0  0  0  0  0  0  0  0  0
   11.1972    0.3590    0.0000 H   0  0  0  0  0  0  0  0  0  0  0  0
   10.3503    0.5860    0.0000 H   0  0  0  0  0  0  0  0  0  0  0  0
    9.2382    2.5121    0.0000 H   0  0  0  0  0  0  0  0  0  0  0  0
    9.4651    3.3590    0.0000 H   0  0  0  0  0  0  0  0  0  0  0  0
    8.6182    3.5860    0.0000 H   0  0  0  0  0  0  0  0  0  0  0  0
  1  9  1  0  0  0  0
  1 18  1  0  0  0  0
 10  2  1  1  0  0  0
  2 25  1  0  0  0  0
  3 17  1  0  0  0  0
  3 45  1  0  0  0  0
  4 17  2  0  0  0  0
  5 26  1  0  0  0  0
  5 29  1  0  0  0  0
  6 27  1  0  0  0  0
  6 30  1  0  0  0  0
  7 25  1  0  0  0  0
  7 26  2  0  0  0  0
  8 25  2  0  0  0  0
  8 27  1  0  0  0  0
  9 10  1  0  0  0  0
  9 11  1  0  0  0  0
  9 12  1  0  0  0  0
 10 17  1  0  0  0  0
 10 31  1  0  0  0  0
 11 13  2  0  0  0  0
 11 15  1  0  0  0  0
 12 14  2  0  0  0  0
 12 16  1  0  0  0  0
 13 20  1  0  0  0  0
 13 32  1  0  0  0  0
 14 19  1  0  0  0  0
 14 33  1  0  0  0  0
 15 22  2  0  0  0  0
 15 34  1  0  0  0  0
 16 21  2  0  0  0  0
 16 35  1  0  0  0  0
 18 36  1  0  0  0  0
 18 37  1  0  0  0  0
 18 38  1  0  0  0  0
 19 23  2  0  0  0  0
 19 40  1  0  0  0  0
 20 24  2  0  0  0  0
 20 39  1  0  0  0  0
 21 23  1  0  0  0  0
 21 42  1  0  0  0  0
 22 24  1  0  0  0  0
 22 41  1  0  0  0  0
 23 44  1  0  0  0  0
 24 43  1  0  0  0  0
 26 28  1  0  0  0  0
 27 28  2  0  0  0  0
 28 46  1  0  0  0  0
 29 47  1  0  0  0  0
 29 48  1  0  0  0  0
 29 49  1  0  0  0  0
 30 50  1  0  0  0  0
 30 51  1  0  0  0  0
 30 52  1  0  0  0  0
M  END
> <PUBCHEM_COMPOUND_CID>
177236

> <PUBCHEM_COMPOUND_CANONICALIZED>
1

> <PUBCHEM_CACTVS_COMPLEXITY>
506

> <PUBCHEM_CACTVS_HBOND_ACCEPTOR>
8

> <PUBCHEM_CACTVS_HBOND_DONOR>
1

> <PUBCHEM_CACTVS_ROTATABLE_BOND>
9

> <PUBCHEM_CACTVS_SUBSKEYS>
AAADceB7OAAAAAAAAAAAAAAAAAAAAAAAAAA8YIAAAAAAAAAB0AAAHgAACAAADFShmgIznJYIFgCoAiDybAKCiCkhIqAJmCF2bJiNLzbEeVyMdCgv4A9LqCeIyOCOgAAAAAAAAAAAAAAAAAAAAAAAAAAAAA==

> <PUBCHEM_IUPAC_OPENEYE_NAME>
(2S)-2-(4,6-dimethoxypyrimidin-2-yl)oxy-3-methoxy-3,3-diphenyl-propanoic acid

> <PUBCHEM_IUPAC_CAS_NAME>
(2S)-2-[(4,6-dimethoxy-2-pyrimidinyl)oxy]-3-methoxy-3,3-diphenylpropanoic acid

> <PUBCHEM_IUPAC_NAME>
(2S)-2-(4,6-dimethoxypyrimidin-2-yl)oxy-3-methoxy-3,3-diphenylpropanoic acid

> <PUBCHEM_IUPAC_SYSTEMATIC_NAME>
(2S)-2-(4,6-dimethoxypyrimidin-2-yl)oxy-3-methoxy-3,3-diphenyl-propanoic acid

> <PUBCHEM_IUPAC_TRADITIONAL_NAME>
(2S)-2-(4,6-dimethoxypyrimidin-2-yl)oxy-3-methoxy-3,3-diphenyl-propionic acid

> <PUBCHEM_IUPAC_INCHI>
InChI=1S/C22H22N2O6/c1-27-17-14-18(28-2)24-21(23-17)30-19(20(25)26)22(29-3,15-10-6-4-7-11-15)16-12-8-5-9-13-16/h4-14,19H,1-3H3,(H,25,26)/t19-/m1/s1

> <PUBCHEM_IUPAC_INCHIKEY>
FEJVSJIALLTFRP-LJQANCHMSA-N

> <PUBCHEM_XLOGP3_AA>
3.6

> <PUBCHEM_EXACT_MASS>
410.147786

> <PUBCHEM_MOLECULAR_FORMULA>
C22H22N2O6

> <PUBCHEM_MOLECULAR_WEIGHT>
410.41988

> <PUBCHEM_OPENEYE_CAN_SMILES>
COC1=CC(=NC(=N1)OC(C(=O)O)C(C2=CC=CC=C2)(C3=CC=CC=C3)OC)OC

> <PUBCHEM_OPENEYE_ISO_SMILES>
COC1=CC(=NC(=N1)O[C@H](C(=O)O)C(C2=CC=CC=C2)(C3=CC=CC=C3)OC)OC

> <PUBCHEM_CACTVS_TPSA>
100

> <PUBCHEM_MONOISOTOPIC_WEIGHT>
410.147786

> <PUBCHEM_TOTAL_CHARGE>
0

> <PUBCHEM_HEAVY_ATOM_COUNT>
30

> <PUBCHEM_ATOM_DEF_STEREO_COUNT>
1

> <PUBCHEM_ATOM_UDEF_STEREO_COUNT>
0

> <PUBCHEM_BOND_DEF_STEREO_COUNT>
0

> <PUBCHEM_BOND_UDEF_STEREO_COUNT>
0

> <PUBCHEM_ISOTOPIC_ATOM_COUNT>
0

> <PUBCHEM_COMPONENT_COUNT>
1

> <PUBCHEM_CACTVS_TAUTO_COUNT>
1

> <PUBCHEM_COORDINATE_TYPE>
1
5
255

> <PUBCHEM_BONDANNOTATIONS>
11  13  8
11  15  8
12  14  8
12  16  8
13  20  8
14  19  8
15  22  8
16  21  8
19  23  8
10  2  5
20  24  8
21  23  8
22  24  8
26  28  8
27  28  8
7  25  8
7  26  8
8  25  8
8  27  8

$$$$
