178103
  -OEChem-04241303532D

 67 71  0     1  0  0  0  0  0999 V2000
   10.2260   -1.2694    0.0000 O   0  0  0  0  0  0  0  0  0  0  0  0
   10.2260    0.4627    0.0000 O   0  0  0  0  0  0  0  0  0  0  0  0
    4.5981    0.5966    0.0000 O   0  0  0  0  0  0  0  0  0  0  0  0
    6.8067    1.8900    0.0000 O   0  0  0  0  0  0  0  0  0  0  0  0
   10.6500   -3.7205    0.0000 O   0  0  0  0  0  0  0  0  0  0  0  0
    9.5751   -4.9184    0.0000 O   0  0  0  0  0  0  0  0  0  0  0  0
    9.3850    4.2034    0.0000 O   0  0  0  0  0  0  0  0  0  0  0  0
    5.7817    4.3291    0.0000 O   0  0  0  0  0  0  0  0  0  0  0  0
    8.7260   -0.4034    0.0000 C   0  0  1  0  0  0  0  0  0  0  0  0
    8.1424    0.4014    0.0000 C   0  0  1  0  0  0  0  0  0  0  0  0
    8.1424   -1.2081    0.0000 C   0  0  2  0  0  0  0  0  0  0  0  0
    7.1962    0.0966    0.0000 C   0  0  0  0  0  0  0  0  0  0  0  0
    7.1962   -0.9034    0.0000 C   0  0  0  0  0  0  0  0  0  0  0  0
    8.4530    1.3519    0.0000 C   0  0  0  0  0  0  0  0  0  0  0  0
    8.4530   -2.1586    0.0000 C   0  0  0  0  0  0  0  0  0  0  0  0
    9.7260   -0.4034    0.0000 C   0  0  0  0  0  0  0  0  0  0  0  0
    6.3301    0.5966    0.0000 C   0  0  0  0  0  0  0  0  0  0  0  0
    6.3301   -1.4034    0.0000 C   0  0  0  0  0  0  0  0  0  0  0  0
    7.7852    2.0962    0.0000 C   0  0  0  0  0  0  0  0  0  0  0  0
    5.4641    0.0966    0.0000 C   0  0  0  0  0  0  0  0  0  0  0  0
    9.4315   -2.3648    0.0000 C   0  0  0  0  0  0  0  0  0  0  0  0
    5.4641   -0.9034    0.0000 C   0  0  0  0  0  0  0  0  0  0  0  0
    7.7852   -2.9029    0.0000 C   0  0  0  0  0  0  0  0  0  0  0  0
    9.4315    1.5581    0.0000 C   0  0  0  0  0  0  0  0  0  0  0  0
    9.7422   -3.3154    0.0000 C   0  0  0  0  0  0  0  0  0  0  0  0
    8.0958   -3.8534    0.0000 C   0  0  0  0  0  0  0  0  0  0  0  0
    8.0958    3.0467    0.0000 C   0  0  0  0  0  0  0  0  0  0  0  0
    9.7422    2.5086    0.0000 C   0  0  0  0  0  0  0  0  0  0  0  0
    9.0744   -4.0597    0.0000 C   0  0  0  0  0  0  0  0  0  0  0  0
    9.0744    3.2529    0.0000 C   0  0  0  0  0  0  0  0  0  0  0  0
    3.7320    0.0966    0.0000 C   0  0  0  0  0  0  0  0  0  0  0  0
   10.5469   -4.7092    0.0000 C   0  0  0  0  0  0  0  0  0  0  0  0
    6.1388    2.6343    0.0000 C   0  0  0  0  0  0  0  0  0  0  0  0
    2.8660    0.5966    0.0000 C   0  0  0  0  0  0  0  0  0  0  0  0
    6.4495    3.5848    0.0000 C   0  0  0  0  0  0  0  0  0  0  0  0
   10.3635    4.4097    0.0000 C   0  0  0  0  0  0  0  0  0  0  0  0
    2.0000    0.0966    0.0000 C   0  0  0  0  0  0  0  0  0  0  0  0
    9.0077   -0.9557    0.0000 H   0  0  0  0  0  0  0  0  0  0  0  0
    8.9821    0.5332    0.0000 H   0  0  0  0  0  0  0  0  0  0  0  0
    8.7549   -1.3043    0.0000 H   0  0  0  0  0  0  0  0  0  0  0  0
    6.3301    1.2166    0.0000 H   0  0  0  0  0  0  0  0  0  0  0  0
    6.3301   -2.0234    0.0000 H   0  0  0  0  0  0  0  0  0  0  0  0
    9.8456   -1.9034    0.0000 H   0  0  0  0  0  0  0  0  0  0  0  0
    4.9272   -1.2134    0.0000 H   0  0  0  0  0  0  0  0  0  0  0  0
    7.1785   -2.7751    0.0000 H   0  0  0  0  0  0  0  0  0  0  0  0
    9.8456    1.0966    0.0000 H   0  0  0  0  0  0  0  0  0  0  0  0
    7.6818   -4.3149    0.0000 H   0  0  0  0  0  0  0  0  0  0  0  0
    7.6818    3.5082    0.0000 H   0  0  0  0  0  0  0  0  0  0  0  0
   10.3489    2.6365    0.0000 H   0  0  0  0  0  0  0  0  0  0  0  0
   10.8460   -1.2694    0.0000 H   0  0  0  0  0  0  0  0  0  0  0  0
    3.3335   -0.3783    0.0000 H   0  0  0  0  0  0  0  0  0  0  0  0
    4.1306   -0.3783    0.0000 H   0  0  0  0  0  0  0  0  0  0  0  0
   10.6130   -5.3257    0.0000 H   0  0  0  0  0  0  0  0  0  0  0  0
   11.1669   -4.7083    0.0000 H   0  0  0  0  0  0  0  0  0  0  0  0
    5.5919    2.9263    0.0000 H   0  0  0  0  0  0  0  0  0  0  0  0
    5.7563    2.1464    0.0000 H   0  0  0  0  0  0  0  0  0  0  0  0
    3.2646    1.0716    0.0000 H   0  0  0  0  0  0  0  0  0  0  0  0
    2.4675    1.0716    0.0000 H   0  0  0  0  0  0  0  0  0  0  0  0
    6.9964    3.2928    0.0000 H   0  0  0  0  0  0  0  0  0  0  0  0
    6.8321    4.0727    0.0000 H   0  0  0  0  0  0  0  0  0  0  0  0
   10.4914    3.8030    0.0000 H   0  0  0  0  0  0  0  0  0  0  0  0
   10.9702    4.5375    0.0000 H   0  0  0  0  0  0  0  0  0  0  0  0
   10.2357    5.0163    0.0000 H   0  0  0  0  0  0  0  0  0  0  0  0
    1.6900    0.6336    0.0000 H   0  0  0  0  0  0  0  0  0  0  0  0
    1.4631   -0.2134    0.0000 H   0  0  0  0  0  0  0  0  0  0  0  0
    2.3100   -0.4403    0.0000 H   0  0  0  0  0  0  0  0  0  0  0  0
    5.9743    4.9184    0.0000 H   0  0  0  0  0  0  0  0  0  0  0  0
  1 16  1  0  0  0  0
  1 50  1  0  0  0  0
  2 16  2  0  0  0  0
  3 20  1  0  0  0  0
  3 31  1  0  0  0  0
  4 19  1  0  0  0  0
  4 33  1  0  0  0  0
  5 25  1  0  0  0  0
  5 32  1  0  0  0  0
  6 29  1  0  0  0  0
  6 32  1  0  0  0  0
  7 30  1  0  0  0  0
  7 36  1  0  0  0  0
  8 35  1  0  0  0  0
  8 67  1  0  0  0  0
  9 10  1  0  0  0  0
  9 11  1  0  0  0  0
  9 16  1  6  0  0  0
  9 38  1  0  0  0  0
 10 12  1  0  0  0  0
 10 14  1  0  0  0  0
 10 39  1  6  0  0  0
 11 13  1  0  0  0  0
 11 15  1  1  0  0  0
 11 40  1  0  0  0  0
 12 13  2  0  0  0  0
 12 17  1  0  0  0  0
 13 18  1  0  0  0  0
 14 19  2  0  0  0  0
 14 24  1  0  0  0  0
 15 21  2  0  0  0  0
 15 23  1  0  0  0  0
 17 20  2  0  0  0  0
 17 41  1  0  0  0  0
 18 22  2  0  0  0  0
 18 42  1  0  0  0  0
 19 27  1  0  0  0  0
 20 22  1  0  0  0  0
 21 25  1  0  0  0  0
 21 43  1  0  0  0  0
 22 44  1  0  0  0  0
 23 26  2  0  0  0  0
 23 45  1  0  0  0  0
 24 28  2  0  0  0  0
 24 46  1  0  0  0  0
 25 29  2  0  0  0  0
 26 29  1  0  0  0  0
 26 47  1  0  0  0  0
 27 30  2  0  0  0  0
 27 48  1  0  0  0  0
 28 30  1  0  0  0  0
 28 49  1  0  0  0  0
 31 34  1  0  0  0  0
 31 51  1  0  0  0  0
 31 52  1  0  0  0  0
 32 53  1  0  0  0  0
 32 54  1  0  0  0  0
 33 35  1  0  0  0  0
 33 55  1  0  0  0  0
 33 56  1  0  0  0  0
 34 37  1  0  0  0  0
 34 57  1  0  0  0  0
 34 58  1  0  0  0  0
 35 59  1  0  0  0  0
 35 60  1  0  0  0  0
 36 61  1  0  0  0  0
 36 62  1  0  0  0  0
 36 63  1  0  0  0  0
 37 64  1  0  0  0  0
 37 65  1  0  0  0  0
 37 66  1  0  0  0  0
M  END
> <PUBCHEM_COMPOUND_CID>
178103

> <PUBCHEM_COMPOUND_CANONICALIZED>
1

> <PUBCHEM_CACTVS_COMPLEXITY>
747

> <PUBCHEM_CACTVS_HBOND_ACCEPTOR>
8

> <PUBCHEM_CACTVS_HBOND_DONOR>
2

> <PUBCHEM_CACTVS_ROTATABLE_BOND>
10

> <PUBCHEM_CACTVS_SUBSKEYS>
AAADceB4PAAAAAAAAAAAAAAAAAAAAaIAAAAwYMAAAAAAAGgBUAAAGgAACAAADQSgmAMyDoAABgCIAiDSCAACCAAgIAAIiAEGiIgdNzKEMRqieCKlwBUPqAeI7PzOoAABCAAYQABAAAIQADCAAQAACAAAAA==

> <PUBCHEM_IUPAC_OPENEYE_NAME>
(1S,2R,3S)-1-(1,3-benzodioxol-5-yl)-3-[2-(2-hydroxyethoxy)-4-methoxy-phenyl]-5-propoxy-indane-2-carboxylic acid

> <PUBCHEM_IUPAC_CAS_NAME>
(1S,2R,3S)-1-(1,3-benzodioxol-5-yl)-3-[2-(2-hydroxyethoxy)-4-methoxyphenyl]-5-propoxy-2,3-dihydro-1H-indene-2-carboxylic acid

> <PUBCHEM_IUPAC_NAME>
(1S,2R,3S)-1-(1,3-benzodioxol-5-yl)-3-[2-(2-hydroxyethoxy)-4-methoxyphenyl]-5-propoxy-2,3-dihydro-1H-indene-2-carboxylic acid

> <PUBCHEM_IUPAC_SYSTEMATIC_NAME>
(1S,2R,3S)-1-(1,3-benzodioxol-5-yl)-3-[2-(2-hydroxyethyloxy)-4-methoxy-phenyl]-5-propoxy-2,3-dihydro-1H-indene-2-carboxylic acid

> <PUBCHEM_IUPAC_TRADITIONAL_NAME>
(1S,2R,3S)-1-(1,3-benzodioxol-5-yl)-3-[2-(2-hydroxyethoxy)-4-methoxy-phenyl]-5-propoxy-indane-2-carboxylic acid

> <PUBCHEM_IUPAC_INCHI>
InChI=1S/C29H30O8/c1-3-11-34-19-6-7-20-22(14-19)27(21-8-5-18(33-2)15-24(21)35-12-10-30)28(29(31)32)26(20)17-4-9-23-25(13-17)37-16-36-23/h4-9,13-15,26-28,30H,3,10-12,16H2,1-2H3,(H,31,32)/t26-,27+,28+/m0/s1

> <PUBCHEM_IUPAC_INCHIKEY>
GLCKXJLCYIJMRB-UPRLRBBYSA-N

> <PUBCHEM_XLOGP3_AA>
4.6

> <PUBCHEM_EXACT_MASS>
506.194068

> <PUBCHEM_MOLECULAR_FORMULA>
C29H30O8

> <PUBCHEM_MOLECULAR_WEIGHT>
506.5437

> <PUBCHEM_OPENEYE_CAN_SMILES>
CCCOC1=CC2=C(C=C1)C(C(C2C3=C(C=C(C=C3)OC)OCCO)C(=O)O)C4=CC5=C(C=C4)OCO5

> <PUBCHEM_OPENEYE_ISO_SMILES>
CCCOC1=CC2=C(C=C1)[C@@H]([C@H]([C@@H]2C3=C(C=C(C=C3)OC)OCCO)C(=O)O)C4=CC5=C(C=C4)OCO5

> <PUBCHEM_CACTVS_TPSA>
104

> <PUBCHEM_MONOISOTOPIC_WEIGHT>
506.194068

> <PUBCHEM_TOTAL_CHARGE>
0

> <PUBCHEM_HEAVY_ATOM_COUNT>
37

> <PUBCHEM_ATOM_DEF_STEREO_COUNT>
3

> <PUBCHEM_ATOM_UDEF_STEREO_COUNT>
0

> <PUBCHEM_BOND_DEF_STEREO_COUNT>
0

> <PUBCHEM_BOND_UDEF_STEREO_COUNT>
0

> <PUBCHEM_ISOTOPIC_ATOM_COUNT>
0

> <PUBCHEM_COMPONENT_COUNT>
1

> <PUBCHEM_CACTVS_TAUTO_COUNT>
1

> <PUBCHEM_COORDINATE_TYPE>
1
5
255

> <PUBCHEM_BONDANNOTATIONS>
10  39  6
11  15  5
12  13  8
12  17  8
13  18  8
14  19  8
14  24  8
15  21  8
15  23  8
17  20  8
18  22  8
19  27  8
20  22  8
21  25  8
23  26  8
24  28  8
25  29  8
26  29  8
27  30  8
28  30  8
9  16  6

$$$$
