9871593
  -OEChem-02070712012D

 63 65  0     0  0  0  0  0  0999 V2000
    6.7646    8.0369    0.0000 Na  0  3  0  0  0  0  0  0  0  0  0  0
    9.4429    5.3417    0.0000 O   0  0  0  0  0  0  0  0  0  0  0  0
    9.4429    3.7322    0.0000 O   0  0  0  0  0  0  0  0  0  0  0  0
    3.3005    1.0369    0.0000 O   0  0  0  0  0  0  0  0  0  0  0  0
    1.5685    4.0369    0.0000 O   0  0  0  0  0  0  0  0  0  0  0  0
    1.5685    2.0369    0.0000 O   0  0  0  0  0  0  0  0  0  0  0  0
    3.3005    5.0369    0.0000 O   0  0  0  0  0  0  0  0  0  0  0  0
    6.7646    7.0369    0.0000 O   0  5  0  0  0  0  0  0  0  0  0  0
    5.5566    7.4766    0.0000 O   0  0  0  0  0  0  0  0  0  0  0  0
    1.5954    8.6011    0.0000 O   0  0  0  0  0  0  0  0  0  0  0  0
    5.0326    4.0369    0.0000 C   0  0  0  0  0  0  0  0  0  0  0  0
    5.0326    5.0369    0.0000 C   0  0  0  0  0  0  0  0  0  0  0  0
    4.1665    3.5369    0.0000 C   0  0  0  0  0  0  0  0  0  0  0  0
    5.8986    5.5369    0.0000 C   0  0  0  0  0  0  0  0  0  0  0  0
    6.7646    5.0369    0.0000 C   0  0  0  0  0  0  0  0  0  0  0  0
    4.1665    5.5369    0.0000 C   0  0  0  0  0  0  0  0  0  0  0  0
    3.3005    4.0369    0.0000 C   0  0  0  0  0  0  0  0  0  0  0  0
    4.1665    2.5369    0.0000 C   0  0  0  0  0  0  0  0  0  0  0  0
    7.6306    5.5369    0.0000 C   0  0  0  0  0  0  0  0  0  0  0  0
    8.4967    5.0369    0.0000 C   0  0  0  0  0  0  0  0  0  0  0  0
    6.7646    4.0369    0.0000 C   0  0  0  0  0  0  0  0  0  0  0  0
    8.4967    4.0369    0.0000 C   0  0  0  0  0  0  0  0  0  0  0  0
    3.3005    2.0369    0.0000 C   0  0  0  0  0  0  0  0  0  0  0  0
    2.4345    3.5369    0.0000 C   0  0  0  0  0  0  0  0  0  0  0  0
    3.5238    6.3030    0.0000 C   0  0  0  0  0  0  0  0  0  0  0  0
    2.4345    2.5369    0.0000 C   0  0  0  0  0  0  0  0  0  0  0  0
    7.6306    3.5369    0.0000 C   0  0  0  0  0  0  0  0  0  0  0  0
    5.8986    6.5369    0.0000 C   0  0  0  0  0  0  0  0  0  0  0  0
   10.0265    4.5369    0.0000 C   0  0  0  0  0  0  0  0  0  0  0  0
    3.8658    7.2427    0.0000 C   0  0  0  0  0  0  0  0  0  0  0  0
    2.5389    6.1293    0.0000 C   0  0  0  0  0  0  0  0  0  0  0  0
    3.2230    8.0087    0.0000 C   0  0  0  0  0  0  0  0  0  0  0  0
    1.8962    6.8954    0.0000 C   0  0  0  0  0  0  0  0  0  0  0  0
    2.2382    7.8351    0.0000 C   0  0  0  0  0  0  0  0  0  0  0  0
    4.1665    0.5369    0.0000 C   0  0  0  0  0  0  0  0  0  0  0  0
    0.7024    3.5369    0.0000 C   0  0  0  0  0  0  0  0  0  0  0  0
    1.5685    1.0369    0.0000 C   0  0  0  0  0  0  0  0  0  0  0  0
    0.6106    8.4275    0.0000 C   0  0  0  0  0  0  0  0  0  0  0  0
    5.6431    4.1446    0.0000 H   0  0  0  0  0  0  0  0  0  0  0  0
    5.2446    3.4543    0.0000 H   0  0  0  0  0  0  0  0  0  0  0  0
    3.3005    4.6569    0.0000 H   0  0  0  0  0  0  0  0  0  0  0  0
    4.7035    2.2269    0.0000 H   0  0  0  0  0  0  0  0  0  0  0  0
    7.6306    6.1569    0.0000 H   0  0  0  0  0  0  0  0  0  0  0  0
    6.2277    3.7269    0.0000 H   0  0  0  0  0  0  0  0  0  0  0  0
    7.6306    2.9169    0.0000 H   0  0  0  0  0  0  0  0  0  0  0  0
   10.4874    4.1222    0.0000 H   0  0  0  0  0  0  0  0  0  0  0  0
   10.4874    4.9517    0.0000 H   0  0  0  0  0  0  0  0  0  0  0  0
    4.4764    7.3503    0.0000 H   0  0  0  0  0  0  0  0  0  0  0  0
    2.3269    5.5467    0.0000 H   0  0  0  0  0  0  0  0  0  0  0  0
    3.4350    8.5913    0.0000 H   0  0  0  0  0  0  0  0  0  0  0  0
    1.2856    6.7877    0.0000 H   0  0  0  0  0  0  0  0  0  0  0  0
    3.8565    0.0000    0.0000 H   0  0  0  0  0  0  0  0  0  0  0  0
    4.7035    0.2269    0.0000 H   0  0  0  0  0  0  0  0  0  0  0  0
    4.4765    1.0739    0.0000 H   0  0  0  0  0  0  0  0  0  0  0  0
    0.3924    4.0739    0.0000 H   0  0  0  0  0  0  0  0  0  0  0  0
    0.1655    3.2269    0.0000 H   0  0  0  0  0  0  0  0  0  0  0  0
    1.0124    3.0000    0.0000 H   0  0  0  0  0  0  0  0  0  0  0  0
    0.9485    1.0369    0.0000 H   0  0  0  0  0  0  0  0  0  0  0  0
    1.5685    0.4169    0.0000 H   0  0  0  0  0  0  0  0  0  0  0  0
    2.1885    1.0369    0.0000 H   0  0  0  0  0  0  0  0  0  0  0  0
    0.5029    9.0380    0.0000 H   0  0  0  0  0  0  0  0  0  0  0  0
    0.0000    8.3198    0.0000 H   0  0  0  0  0  0  0  0  0  0  0  0
    0.7182    7.8169    0.0000 H   0  0  0  0  0  0  0  0  0  0  0  0
  2 20  1  0  0  0  0
  2 29  1  0  0  0  0
  3 22  1  0  0  0  0
  3 29  1  0  0  0  0
  4 23  1  0  0  0  0
  4 35  1  0  0  0  0
  5 24  1  0  0  0  0
  5 36  1  0  0  0  0
  6 26  1  0  0  0  0
  6 37  1  0  0  0  0
  7 16  2  0  0  0  0
  8 28  1  0  0  0  0
  9 28  2  0  0  0  0
 10 34  1  0  0  0  0
 10 38  1  0  0  0  0
 11 12  1  0  0  0  0
 11 13  1  0  0  0  0
 11 39  1  0  0  0  0
 11 40  1  0  0  0  0
 12 14  2  0  0  0  0
 12 16  1  0  0  0  0
 13 17  2  0  0  0  0
 13 18  1  0  0  0  0
 14 15  1  0  0  0  0
 14 28  1  0  0  0  0
 15 19  2  0  0  0  0
 15 21  1  0  0  0  0
 16 25  1  0  0  0  0
 17 24  1  0  0  0  0
 17 41  1  0  0  0  0
 18 23  2  0  0  0  0
 18 42  1  0  0  0  0
 19 20  1  0  0  0  0
 19 43  1  0  0  0  0
 20 22  2  0  0  0  0
 21 27  2  0  0  0  0
 21 44  1  0  0  0  0
 22 27  1  0  0  0  0
 23 26  1  0  0  0  0
 24 26  2  0  0  0  0
 25 30  2  0  0  0  0
 25 31  1  0  0  0  0
 27 45  1  0  0  0  0
 29 46  1  0  0  0  0
 29 47  1  0  0  0  0
 30 32  1  0  0  0  0
 30 48  1  0  0  0  0
 31 33  2  0  0  0  0
 31 49  1  0  0  0  0
 32 34  2  0  0  0  0
 32 50  1  0  0  0  0
 33 34  1  0  0  0  0
 33 51  1  0  0  0  0
 35 52  1  0  0  0  0
 35 53  1  0  0  0  0
 35 54  1  0  0  0  0
 36 55  1  0  0  0  0
 36 56  1  0  0  0  0
 36 57  1  0  0  0  0
 37 58  1  0  0  0  0
 37 59  1  0  0  0  0
 37 60  1  0  0  0  0
 38 61  1  0  0  0  0
 38 62  1  0  0  0  0
 38 63  1  0  0  0  0
M  CHG  2   1   1   8  -1
M  END

> <PUBCHEM_BONDANNOTATIONS>
13  17  8
13  18  8
15  19  8
15  21  8
17  24  8
18  23  8
19  20  8
20  22  8
21  27  8
22  27  8
23  26  8
24  26  8
25  30  8
25  31  8
30  32  8
31  33  8
32  34  8
33  34  8

$$$$
