


 38 42  0  0001  0  0  0  0  0999 V2000
   10.2260   -1.2694    0.0000 O   0  0  0  0  0  0  0  0  0  0  0
   10.2260    0.4627    0.0000 O   0  0  0  0  0  0  0  0  0  0  0
    4.5981    0.5966    0.0000 O   0  0  0  0  0  0  0  0  0  0  0
    6.8067    1.8900    0.0000 O   0  0  0  0  0  0  0  0  0  0  0
   10.6500   -3.7205    0.0000 O   0  0  0  0  0  0  0  0  0  0  0
    9.5751   -4.9184    0.0000 O   0  0  0  0  0  0  0  0  0  0  0
    9.3850    4.2034    0.0000 O   0  0  0  0  0  0  0  0  0  0  0
    5.7817    4.3291    0.0000 O   0  0  0  0  0  0  0  0  0  0  0
    7.4280    3.7910    0.0000 O   0  0  0  0  0  0  0  0  0  0  0
    8.7260   -0.4034    0.0000 C   0  0  0  0  0  0  0  0  0  0  0
    8.1424    0.4014    0.0000 C   0  0  0  0  0  0  0  0  0  0  0
    8.1424   -1.2081    0.0000 C   0  0  0  0  0  0  0  0  0  0  0
    7.1962    0.0966    0.0000 C   0  0  0  0  0  0  0  0  0  0  0
    7.1962   -0.9034    0.0000 C   0  0  0  0  0  0  0  0  0  0  0
    8.4530   -2.1586    0.0000 C   0  0  0  0  0  0  0  0  0  0  0
    8.4530    1.3519    0.0000 C   0  0  0  0  0  0  0  0  0  0  0
    9.7260   -0.4034    0.0000 C   0  0  0  0  0  0  0  0  0  0  0
    6.3301    0.5966    0.0000 C   0  0  0  0  0  0  0  0  0  0  0
    6.3301   -1.4034    0.0000 C   0  0  0  0  0  0  0  0  0  0  0
    5.4641    0.0966    0.0000 C   0  0  0  0  0  0  0  0  0  0  0
    7.7852    2.0962    0.0000 C   0  0  0  0  0  0  0  0  0  0  0
    9.4315   -2.3648    0.0000 C   0  0  0  0  0  0  0  0  0  0  0
    7.7852   -2.9029    0.0000 C   0  0  0  0  0  0  0  0  0  0  0
    5.4641   -0.9034    0.0000 C   0  0  0  0  0  0  0  0  0  0  0
    9.4315    1.5581    0.0000 C   0  0  0  0  0  0  0  0  0  0  0
    9.7422   -3.3154    0.0000 C   0  0  0  0  0  0  0  0  0  0  0
    8.0959   -3.8534    0.0000 C   0  0  0  0  0  0  0  0  0  0  0
    8.0959    3.0467    0.0000 C   0  0  0  0  0  0  0  0  0  0  0
    9.7422    2.5086    0.0000 C   0  0  0  0  0  0  0  0  0  0  0
    9.0744   -4.0597    0.0000 C   0  0  0  0  0  0  0  0  0  0  0
    9.0744    3.2529    0.0000 C   0  0  0  0  0  0  0  0  0  0  0
    3.7321    0.0966    0.0000 C   0  0  0  0  0  0  0  0  0  0  0
   10.5469   -4.7092    0.0000 C   0  0  0  0  0  0  0  0  0  0  0
    6.1388    2.6343    0.0000 C   0  0  0  0  0  0  0  0  0  0  0
    2.8660    0.5966    0.0000 C   0  0  0  0  0  0  0  0  0  0  0
    6.4495    3.5848    0.0000 C   0  0  0  0  0  0  0  0  0  0  0
   10.3635    4.4097    0.0000 C   0  0  0  0  0  0  0  0  0  0  0
    2.0000    0.0966    0.0000 C   0  0  0  0  0  0  0  0  0  0  0
  1 17  1  0
  2 17  2  0
  3 20  1  0
  3 32  1  0
  4 21  1  0
  4 34  1  0
  5 26  1  0
  5 33  1  0
  6 30  1  0
  6 33  1  0
  7 31  1  0
  7 37  1  0
  8 36  1  0
  9 36  2  0
 10 11  1  0
 10 12  1  0
 10 17  1  6
 11 13  1  0
 11 16  1  1
 12 14  1  0
 12 15  1  1
 13 14  2  0
 13 18  1  0
 14 19  1  0
 15 22  2  0
 15 23  1  0
 16 21  2  0
 16 25  1  0
 18 20  2  0
 19 24  2  0
 20 24  1  0
 21 28  1  0
 22 26  1  0
 23 27  2  0
 25 29  2  0
 26 30  2  0
 27 30  1  0
 28 31  2  0
 29 31  1  0
 32 35  1  0
 34 36  1  0
 35 38  1  0
M  END

> <PUBCHEM_BONDANNOTATIONS>
10  17  6
11  16  5
12  15  5
13  14  8
13  18  8
14  19  8
15  22  8
15  23  8
16  21  8
16  25  8
18  20  8
19  24  8
20  24  8
21  28  8
22  26  8
23  27  8
25  29  8
26  30  8
27  30  8
28  31  8
29  31  8

$$$$
