9939443
  -OEChem-04231305212D

 72 74  0     0  0  0  0  0  0999 V2000
    8.2331    8.0404    0.0000 S   0  0  0  0  0  0  0  0  0  0  0  0
    0.0000    6.8302    0.0000 Na  0  3  0  0  0  0  0  0  0  0  0  0
    7.5501   13.6604    0.0000 Na  0  3  0  0  0  0  0  0  0  0  0  0
    5.6350    6.5404    0.0000 O   0  0  0  0  0  0  0  0  0  0  0  0
    7.7331    8.9065    0.0000 O   0  0  0  0  0  0  0  0  0  0  0  0
    8.7331    7.1744    0.0000 O   0  0  0  0  0  0  0  0  0  0  0  0
    5.6350    4.5404    0.0000 O   0  0  0  0  0  0  0  0  0  0  0  0
    3.9030    7.5404    0.0000 O   0  0  0  0  0  0  0  0  0  0  0  0
    4.7690    2.0404    0.0000 O   0  0  0  0  0  0  0  0  0  0  0  0
    7.3671    7.5404    0.0000 N   0  0  0  0  0  0  0  0  0  0  0  0
    9.0991    9.5404    0.0000 N   0  0  0  0  0  0  0  0  0  0  0  0
    8.2331    6.0404    0.0000 N   0  0  0  0  0  0  0  0  0  0  0  0
    7.3671    4.5404    0.0000 N   0  0  0  0  0  0  0  0  0  0  0  0
   10.8312    3.5404    0.0000 N   0  0  0  0  0  0  0  0  0  0  0  0
   10.7742    1.4526    0.0000 N   0  0  0  0  0  0  0  0  0  0  0  0
    9.1561    1.4526    0.0000 N   0  0  0  0  0  0  0  0  0  0  0  0
   10.4651    0.5016    0.0000 N   0  0  0  0  0  0  0  0  0  0  0  0
    9.4651    0.5016    0.0000 N   0  0  0  0  0  0  0  0  0  0  0  0
   11.6972   10.0404    0.0000 C   0  0  0  0  0  0  0  0  0  0  0  0
   10.8312    9.5404    0.0000 C   0  0  0  0  0  0  0  0  0  0  0  0
   11.6972   11.0404    0.0000 C   0  0  0  0  0  0  0  0  0  0  0  0
   12.5632    9.5404    0.0000 C   0  0  0  0  0  0  0  0  0  0  0  0
    9.0991    8.5404    0.0000 C   0  0  0  0  0  0  0  0  0  0  0  0
   10.8312    8.5404    0.0000 C   0  0  0  0  0  0  0  0  0  0  0  0
    9.9651   10.0404    0.0000 C   0  0  0  0  0  0  0  0  0  0  0  0
    9.9651    8.0404    0.0000 C   0  0  0  0  0  0  0  0  0  0  0  0
    7.3671    6.5404    0.0000 C   0  0  0  0  0  0  0  0  0  0  0  0
    6.5010    6.0404    0.0000 C   0  0  0  0  0  0  0  0  0  0  0  0
    6.5010    5.0404    0.0000 C   0  0  0  0  0  0  0  0  0  0  0  0
    8.2331    5.0404    0.0000 C   0  0  0  0  0  0  0  0  0  0  0  0
    9.0991    4.5404    0.0000 C   0  0  0  0  0  0  0  0  0  0  0  0
    4.7690    6.0404    0.0000 C   0  0  0  0  0  0  0  0  0  0  0  0
    9.0991    3.5404    0.0000 C   0  0  0  0  0  0  0  0  0  0  0  0
    9.9651    5.0404    0.0000 C   0  0  0  0  0  0  0  0  0  0  0  0
    5.6350    3.5404    0.0000 C   0  0  0  0  0  0  0  0  0  0  0  0
    3.9030    6.5404    0.0000 C   0  0  0  0  0  0  0  0  0  0  0  0
    9.9651    3.0404    0.0000 C   0  0  0  0  0  0  0  0  0  0  0  0
    4.7690    5.0404    0.0000 C   0  0  0  0  0  0  0  0  0  0  0  0
   10.8312    4.5404    0.0000 C   0  0  0  0  0  0  0  0  0  0  0  0
    4.7690    3.0404    0.0000 C   0  0  0  0  0  0  0  0  0  0  0  0
    3.0369    6.0404    0.0000 C   0  0  0  0  0  0  0  0  0  0  0  0
    3.9030    4.5404    0.0000 C   0  0  0  0  0  0  0  0  0  0  0  0
    3.0369    5.0404    0.0000 C   0  0  0  0  0  0  0  0  0  0  0  0
    9.9651    2.0404    0.0000 C   0  0  0  0  0  0  0  0  0  0  0  0
    3.0369    8.0404    0.0000 C   0  0  0  0  0  0  0  0  0  0  0  0
   12.2341   10.3504    0.0000 H   0  0  0  0  0  0  0  0  0  0  0  0
   12.3172   11.0404    0.0000 H   0  0  0  0  0  0  0  0  0  0  0  0
   12.2532    9.0035    0.0000 H   0  0  0  0  0  0  0  0  0  0  0  0
   13.1002    9.2304    0.0000 H   0  0  0  0  0  0  0  0  0  0  0  0
   12.8732   10.0774    0.0000 H   0  0  0  0  0  0  0  0  0  0  0  0
   11.6972   11.6604    0.0000 H   0  0  0  0  0  0  0  0  0  0  0  0
   11.0772   11.0404    0.0000 H   0  0  0  0  0  0  0  0  0  0  0  0
   11.3681    8.2304    0.0000 H   0  0  0  0  0  0  0  0  0  0  0  0
    9.9651   10.6604    0.0000 H   0  0  0  0  0  0  0  0  0  0  0  0
    9.9651    7.4204    0.0000 H   0  0  0  0  0  0  0  0  0  0  0  0
    6.8301    7.8504    0.0000 H   0  0  0  0  0  0  0  0  0  0  0  0
    8.5622    3.2304    0.0000 H   0  0  0  0  0  0  0  0  0  0  0  0
    9.9651    5.6604    0.0000 H   0  0  0  0  0  0  0  0  0  0  0  0
    5.8471    2.9578    0.0000 H   0  0  0  0  0  0  0  0  0  0  0  0
    6.2456    3.6481    0.0000 H   0  0  0  0  0  0  0  0  0  0  0  0
    5.3059    4.7304    0.0000 H   0  0  0  0  0  0  0  0  0  0  0  0
   11.3681    4.8504    0.0000 H   0  0  0  0  0  0  0  0  0  0  0  0
    4.5569    3.6230    0.0000 H   0  0  0  0  0  0  0  0  0  0  0  0
    4.1584    2.9328    0.0000 H   0  0  0  0  0  0  0  0  0  0  0  0
    2.5000    6.3504    0.0000 H   0  0  0  0  0  0  0  0  0  0  0  0
    3.9030    3.9204    0.0000 H   0  0  0  0  0  0  0  0  0  0  0  0
    2.5000    4.7304    0.0000 H   0  0  0  0  0  0  0  0  0  0  0  0
    3.3469    8.5774    0.0000 H   0  0  0  0  0  0  0  0  0  0  0  0
    2.5000    8.3504    0.0000 H   0  0  0  0  0  0  0  0  0  0  0  0
    2.7269    7.5035    0.0000 H   0  0  0  0  0  0  0  0  0  0  0  0
    4.2320    1.7304    0.0000 H   0  0  0  0  0  0  0  0  0  0  0  0
   10.8296    0.0000    0.0000 H   0  0  0  0  0  0  0  0  0  0  0  0
  1  5  2  0  0  0  0
  1  6  2  0  0  0  0
  1 10  1  0  0  0  0
  1 23  1  0  0  0  0
  4 28  1  0  0  0  0
  4 32  1  0  0  0  0
  7 29  1  0  0  0  0
  7 35  1  0  0  0  0
  8 36  1  0  0  0  0
  8 45  1  0  0  0  0
  9 40  1  0  0  0  0
  9 71  1  0  0  0  0
 10 27  1  0  0  0  0
 10 56  1  0  0  0  0
 11 23  2  0  0  0  0
 11 25  1  0  0  0  0
 12 27  1  0  0  0  0
 12 30  2  0  0  0  0
 13 29  2  0  0  0  0
 13 30  1  0  0  0  0
 14 37  2  0  0  0  0
 14 39  1  0  0  0  0
 15 17  1  0  0  0  0
 15 44  2  0  0  0  0
 16 18  2  0  0  0  0
 16 44  1  0  0  0  0
 17 18  1  0  0  0  0
 17 72  1  0  0  0  0
 19 20  1  0  0  0  0
 19 21  1  0  0  0  0
 19 22  1  0  0  0  0
 19 46  1  0  0  0  0
 20 24  1  0  0  0  0
 20 25  2  0  0  0  0
 21 47  1  0  0  0  0
 21 51  1  0  0  0  0
 21 52  1  0  0  0  0
 22 48  1  0  0  0  0
 22 49  1  0  0  0  0
 22 50  1  0  0  0  0
 23 26  1  0  0  0  0
 24 26  2  0  0  0  0
 24 53  1  0  0  0  0
 25 54  1  0  0  0  0
 26 55  1  0  0  0  0
 27 28  2  0  0  0  0
 28 29  1  0  0  0  0
 30 31  1  0  0  0  0
 31 33  2  0  0  0  0
 31 34  1  0  0  0  0
 32 36  1  0  0  0  0
 32 38  2  0  0  0  0
 33 37  1  0  0  0  0
 33 57  1  0  0  0  0
 34 39  2  0  0  0  0
 34 58  1  0  0  0  0
 35 40  1  0  0  0  0
 35 59  1  0  0  0  0
 35 60  1  0  0  0  0
 36 41  2  0  0  0  0
 37 44  1  0  0  0  0
 38 42  1  0  0  0  0
 38 61  1  0  0  0  0
 39 62  1  0  0  0  0
 40 63  1  0  0  0  0
 40 64  1  0  0  0  0
 41 43  1  0  0  0  0
 41 65  1  0  0  0  0
 42 43  2  0  0  0  0
 42 66  1  0  0  0  0
 43 67  1  0  0  0  0
 45 68  1  0  0  0  0
 45 69  1  0  0  0  0
 45 70  1  0  0  0  0
M  CHG  2   2   1   3   1
M  END
> <PUBCHEM_COMPOUND_CID>
9939443

> <PUBCHEM_COMPOUND_CANONICALIZED>
1

> <PUBCHEM_CACTVS_COMPLEXITY>
962

> <PUBCHEM_CACTVS_HBOND_ACCEPTOR>
14

> <PUBCHEM_CACTVS_HBOND_DONOR>
3

> <PUBCHEM_CACTVS_ROTATABLE_BOND>
12

> <PUBCHEM_CACTVS_SUBSKEYS>
AAADceB7+DBAAAAAAAAAAAAAAAAAAWAAAAA8WLEAAAAAAAAB/gAAHgQYSAAADQzh3wY/t5ZKFgKiAzZnZHTK2DsxYqAd+Dg/7JiPfuLE+dufPCruwBvb6CeQQAAOgAAAAAAAQAAAAAAAAACAAAAAAAAAAA==

> <PUBCHEM_IUPAC_OPENEYE_NAME>
disodium;N-[6-(2-hydroxyethoxy)-5-(2-methoxyphenoxy)-2-[2-(2H-tetrazol-5-yl)-4-pyridyl]pyrimidin-4-yl]-5-isopropyl-pyridine-2-sulfonamide

> <PUBCHEM_IUPAC_CAS_NAME>
disodium;N-[6-(2-hydroxyethoxy)-5-(2-methoxyphenoxy)-2-[2-(2H-tetrazol-5-yl)-4-pyridinyl]-4-pyrimidinyl]-5-propan-2-yl-2-pyridinesulfonamide

> <PUBCHEM_IUPAC_NAME>
disodium;N-[6-(2-hydroxyethoxy)-5-(2-methoxyphenoxy)-2-[2-(2H-tetrazol-5-yl)pyridin-4-yl]pyrimidin-4-yl]-5-propan-2-ylpyridine-2-sulfonamide

> <PUBCHEM_IUPAC_SYSTEMATIC_NAME>
disodium;N-[6-(2-hydroxyethyloxy)-5-(2-methoxyphenoxy)-2-[2-(2H-1,2,3,4-tetrazol-5-yl)pyridin-4-yl]pyrimidin-4-yl]-5-propan-2-yl-pyridine-2-sulfonamide

> <PUBCHEM_IUPAC_TRADITIONAL_NAME>
disodium;N-[6-(2-hydroxyethoxy)-5-(2-methoxyphenoxy)-2-[2-(2H-tetrazol-5-yl)-4-pyridyl]pyrimidin-4-yl]-5-isopropyl-pyridine-2-sulfonamide

> <PUBCHEM_IUPAC_INCHI>
InChI=1S/C27H27N9O6S.2Na/c1-16(2)18-8-9-22(29-15-18)43(38,39)34-26-23(42-21-7-5-4-6-20(21)40-3)27(41-13-12-37)31-24(30-26)17-10-11-28-19(14-17)25-32-35-36-33-25;;/h4-11,14-16,37H,12-13H2,1-3H3,(H,30,31,34)(H,32,33,35,36);;/q;2*+1

> <PUBCHEM_IUPAC_INCHIKEY>
HNRDDZRAPPNCEB-UHFFFAOYSA-N

> <PUBCHEM_EXACT_MASS>
651.160039

> <PUBCHEM_MOLECULAR_FORMULA>
C27H27N9Na2O6S+2

> <PUBCHEM_MOLECULAR_WEIGHT>
651.604519

> <PUBCHEM_OPENEYE_CAN_SMILES>
CC(C)C1=CN=C(C=C1)S(=O)(=O)NC2=C(C(=NC(=N2)C3=CC(=NC=C3)C4=NNN=N4)OCCO)OC5=CC=CC=C5OC.[Na+].[Na+]

> <PUBCHEM_OPENEYE_ISO_SMILES>
CC(C)C1=CN=C(C=C1)S(=O)(=O)NC2=C(C(=NC(=N2)C3=CC(=NC=C3)C4=NNN=N4)OCCO)OC5=CC=CC=C5OC.[Na+].[Na+]

> <PUBCHEM_CACTVS_TPSA>
209

> <PUBCHEM_MONOISOTOPIC_WEIGHT>
651.160039

> <PUBCHEM_TOTAL_CHARGE>
2

> <PUBCHEM_HEAVY_ATOM_COUNT>
45

> <PUBCHEM_ATOM_DEF_STEREO_COUNT>
0

> <PUBCHEM_ATOM_UDEF_STEREO_COUNT>
0

> <PUBCHEM_BOND_DEF_STEREO_COUNT>
0

> <PUBCHEM_BOND_UDEF_STEREO_COUNT>
0

> <PUBCHEM_ISOTOPIC_ATOM_COUNT>
0

> <PUBCHEM_COMPONENT_COUNT>
3

> <PUBCHEM_CACTVS_TAUTO_COUNT>
9

> <PUBCHEM_COORDINATE_TYPE>
1
5
255

> <PUBCHEM_BONDANNOTATIONS>
11  23  8
11  25  8
12  27  8
12  30  8
13  29  8
13  30  8
14  37  8
14  39  8
15  17  8
15  44  8
16  18  8
16  44  8
17  18  8
20  24  8
20  25  8
23  26  8
24  26  8
27  28  8
28  29  8
31  33  8
31  34  8
32  36  8
32  38  8
33  37  8
34  39  8
36  41  8
38  42  8
41  43  8
42  43  8

$$$$
