9910224
  -OEChem-04241304592D

 46 49  0     0  0  0  0  0  0999 V2000
    7.9128   -0.5000    0.0000 S   0  0  0  0  0  0  0  0  0  0  0  0
    8.9128   -0.5000    0.0000 O   0  0  0  0  0  0  0  0  0  0  0  0
    6.9128   -0.5000    0.0000 O   0  0  0  0  0  0  0  0  0  0  0  0
    7.9128    2.5000    0.0000 O   0  0  0  0  0  0  0  0  0  0  0  0
    2.6691   -0.4067    0.0000 O   0  0  0  0  0  0  0  0  0  0  0  0
    7.9128    0.5000    0.0000 N   0  0  0  0  0  0  0  0  0  0  0  0
    7.0468   -3.0000    0.0000 N   0  0  0  0  0  0  0  0  0  0  0  0
    9.6448    0.5000    0.0000 N   0  0  0  0  0  0  0  0  0  0  0  0
    9.6448    2.5000    0.0000 N   0  0  0  0  0  0  0  0  0  0  0  0
    3.4782    0.9945    0.0000 N   0  0  0  0  0  0  0  0  0  0  0  0
    2.5000    1.2024    0.0000 N   0  0  0  0  0  0  0  0  0  0  0  0
    7.9128   -1.5000    0.0000 C   0  0  0  0  0  0  0  0  0  0  0  0
    7.0468   -2.0000    0.0000 C   0  0  0  0  0  0  0  0  0  0  0  0
    6.1808   -1.5000    0.0000 C   0  0  0  0  0  0  0  0  0  0  0  0
    8.7788   -2.0000    0.0000 C   0  0  0  0  0  0  0  0  0  0  0  0
    5.3147   -2.0000    0.0000 C   0  0  0  0  0  0  0  0  0  0  0  0
    6.1808   -0.5000    0.0000 C   0  0  0  0  0  0  0  0  0  0  0  0
    8.7788    1.0000    0.0000 C   0  0  0  0  0  0  0  0  0  0  0  0
    4.4487   -0.5000    0.0000 C   0  0  0  0  0  0  0  0  0  0  0  0
    4.4487   -1.5000    0.0000 C   0  0  0  0  0  0  0  0  0  0  0  0
    5.3147    0.0000    0.0000 C   0  0  0  0  0  0  0  0  0  0  0  0
    8.7788   -3.0000    0.0000 C   0  0  0  0  0  0  0  0  0  0  0  0
    7.9128   -3.5000    0.0000 C   0  0  0  0  0  0  0  0  0  0  0  0
    8.7788    2.0000    0.0000 C   0  0  0  0  0  0  0  0  0  0  0  0
    3.5827    0.0000    0.0000 C   0  0  0  0  0  0  0  0  0  0  0  0
   10.5109    2.0000    0.0000 C   0  0  0  0  0  0  0  0  0  0  0  0
   10.5109    1.0000    0.0000 C   0  0  0  0  0  0  0  0  0  0  0  0
   11.3769    2.5000    0.0000 C   0  0  0  0  0  0  0  0  0  0  0  0
    7.9128    3.5000    0.0000 C   0  0  0  0  0  0  0  0  0  0  0  0
    2.0000    0.3364    0.0000 C   0  0  0  0  0  0  0  0  0  0  0  0
    9.3158   -1.6900    0.0000 H   0  0  0  0  0  0  0  0  0  0  0  0
    7.3759    0.8100    0.0000 H   0  0  0  0  0  0  0  0  0  0  0  0
    5.3147   -2.6200    0.0000 H   0  0  0  0  0  0  0  0  0  0  0  0
    6.7177   -0.1900    0.0000 H   0  0  0  0  0  0  0  0  0  0  0  0
    3.9118   -1.8100    0.0000 H   0  0  0  0  0  0  0  0  0  0  0  0
    5.3147    0.6200    0.0000 H   0  0  0  0  0  0  0  0  0  0  0  0
    9.3158   -3.3100    0.0000 H   0  0  0  0  0  0  0  0  0  0  0  0
    7.9128   -4.1200    0.0000 H   0  0  0  0  0  0  0  0  0  0  0  0
   11.0478    0.6900    0.0000 H   0  0  0  0  0  0  0  0  0  0  0  0
   11.6869    1.9631    0.0000 H   0  0  0  0  0  0  0  0  0  0  0  0
   11.9138    2.8100    0.0000 H   0  0  0  0  0  0  0  0  0  0  0  0
   11.0669    3.0369    0.0000 H   0  0  0  0  0  0  0  0  0  0  0  0
    8.5328    3.5000    0.0000 H   0  0  0  0  0  0  0  0  0  0  0  0
    7.9128    4.1200    0.0000 H   0  0  0  0  0  0  0  0  0  0  0  0
    7.2928    3.5000    0.0000 H   0  0  0  0  0  0  0  0  0  0  0  0
    1.3834    0.2716    0.0000 H   0  0  0  0  0  0  0  0  0  0  0  0
  1  2  2  0  0  0  0
  1  3  2  0  0  0  0
  1  6  1  0  0  0  0
  1 12  1  0  0  0  0
  4 24  1  0  0  0  0
  4 29  1  0  0  0  0
  5 25  1  0  0  0  0
  5 30  1  0  0  0  0
  6 18  1  0  0  0  0
  6 32  1  0  0  0  0
  7 13  1  0  0  0  0
  7 23  2  0  0  0  0
  8 18  2  0  0  0  0
  8 27  1  0  0  0  0
  9 24  2  0  0  0  0
  9 26  1  0  0  0  0
 10 11  1  0  0  0  0
 10 25  2  0  0  0  0
 11 30  2  0  0  0  0
 12 13  2  0  0  0  0
 12 15  1  0  0  0  0
 13 14  1  0  0  0  0
 14 16  2  0  0  0  0
 14 17  1  0  0  0  0
 15 22  2  0  0  0  0
 15 31  1  0  0  0  0
 16 20  1  0  0  0  0
 16 33  1  0  0  0  0
 17 21  2  0  0  0  0
 17 34  1  0  0  0  0
 18 24  1  0  0  0  0
 19 20  2  0  0  0  0
 19 21  1  0  0  0  0
 19 25  1  0  0  0  0
 20 35  1  0  0  0  0
 21 36  1  0  0  0  0
 22 23  1  0  0  0  0
 22 37  1  0  0  0  0
 23 38  1  0  0  0  0
 26 27  2  0  0  0  0
 26 28  1  0  0  0  0
 27 39  1  0  0  0  0
 28 40  1  0  0  0  0
 28 41  1  0  0  0  0
 28 42  1  0  0  0  0
 29 43  1  0  0  0  0
 29 44  1  0  0  0  0
 29 45  1  0  0  0  0
 30 46  1  0  0  0  0
M  END
> <PUBCHEM_COMPOUND_CID>
9910224

> <PUBCHEM_COMPOUND_CANONICALIZED>
1

> <PUBCHEM_CACTVS_COMPLEXITY>
654

> <PUBCHEM_CACTVS_HBOND_ACCEPTOR>
10

> <PUBCHEM_CACTVS_HBOND_DONOR>
1

> <PUBCHEM_CACTVS_ROTATABLE_BOND>
6

> <PUBCHEM_CACTVS_SUBSKEYS>
AAADceB7uABAAAAAAAAAAAAAAAAAAWAAAAA8WIAAAAAAAAAB/AAAHgQYQAAADAjB3gY/tZJIFEKqAzd39HTSiD090iAa2D05fNiOZvLAtZmdMQhkyAPY6aeYyPCOQAAAAAAAAACAAAAAAAAAAAAAAAAAAA==

> <PUBCHEM_IUPAC_OPENEYE_NAME>
N-(3-methoxy-5-methyl-pyrazin-2-yl)-2-[4-(1,3,4-oxadiazol-2-yl)phenyl]pyridine-3-sulfonamide

> <PUBCHEM_IUPAC_CAS_NAME>
N-(3-methoxy-5-methyl-2-pyrazinyl)-2-[4-(1,3,4-oxadiazol-2-yl)phenyl]-3-pyridinesulfonamide

> <PUBCHEM_IUPAC_NAME>
N-(3-methoxy-5-methylpyrazin-2-yl)-2-[4-(1,3,4-oxadiazol-2-yl)phenyl]pyridine-3-sulfonamide

> <PUBCHEM_IUPAC_SYSTEMATIC_NAME>
N-(3-methoxy-5-methyl-pyrazin-2-yl)-2-[4-(1,3,4-oxadiazol-2-yl)phenyl]pyridine-3-sulfonamide

> <PUBCHEM_IUPAC_TRADITIONAL_NAME>
N-(3-methoxy-5-methyl-pyrazin-2-yl)-2-[4-(1,3,4-oxadiazol-2-yl)phenyl]pyridine-3-sulfonamide

> <PUBCHEM_IUPAC_INCHI>
InChI=1S/C19H16N6O4S/c1-12-10-21-17(19(23-12)28-2)25-30(26,27)15-4-3-9-20-16(15)13-5-7-14(8-6-13)18-24-22-11-29-18/h3-11H,1-2H3,(H,21,25)

> <PUBCHEM_IUPAC_INCHIKEY>
FJHHZXWJVIEFGJ-UHFFFAOYSA-N

> <PUBCHEM_XLOGP3_AA>
1.4

> <PUBCHEM_EXACT_MASS>
424.095374

> <PUBCHEM_MOLECULAR_FORMULA>
C19H16N6O4S

> <PUBCHEM_MOLECULAR_WEIGHT>
424.43314

> <PUBCHEM_OPENEYE_CAN_SMILES>
CC1=CN=C(C(=N1)OC)NS(=O)(=O)C2=C(N=CC=C2)C3=CC=C(C=C3)C4=NN=CO4

> <PUBCHEM_OPENEYE_ISO_SMILES>
CC1=CN=C(C(=N1)OC)NS(=O)(=O)C2=C(N=CC=C2)C3=CC=C(C=C3)C4=NN=CO4

> <PUBCHEM_CACTVS_TPSA>
141

> <PUBCHEM_MONOISOTOPIC_WEIGHT>
424.095374

> <PUBCHEM_TOTAL_CHARGE>
0

> <PUBCHEM_HEAVY_ATOM_COUNT>
30

> <PUBCHEM_ATOM_DEF_STEREO_COUNT>
0

> <PUBCHEM_ATOM_UDEF_STEREO_COUNT>
0

> <PUBCHEM_BOND_DEF_STEREO_COUNT>
0

> <PUBCHEM_BOND_UDEF_STEREO_COUNT>
0

> <PUBCHEM_ISOTOPIC_ATOM_COUNT>
0

> <PUBCHEM_COMPONENT_COUNT>
1

> <PUBCHEM_CACTVS_TAUTO_COUNT>
2

> <PUBCHEM_COORDINATE_TYPE>
1
5
255

> <PUBCHEM_BONDANNOTATIONS>
10  11  8
10  25  8
11  30  8
12  13  8
12  15  8
14  16  8
14  17  8
15  22  8
16  20  8
17  21  8
18  24  8
19  20  8
19  21  8
22  23  8
26  27  8
5  25  8
5  30  8
7  13  8
7  23  8
8  18  8
8  27  8
9  24  8
9  26  8

$$$$
